MODEL 1
REMARK VINA RESULT:      -3.0      0.000      0.000
REMARK  3 active torsions:
REMARK  status: ('A' for Active; 'I' for Inactive)
REMARK    1  A    between atoms: C2_2  and  N1_3 
REMARK    2  A    between atoms: N1_3  and  C3_4 
REMARK    3  A    between atoms: N1_3  and  C5_6 
ROOT
HETATM    1  N1  UNL     1     -16.018   2.133   5.161  1.00  0.00     0.087 N 
ENDROOT
BRANCH   1   2
HETATM    2  C2  UNL     1     -14.946   2.258   4.158  1.00  0.00     0.268 C 
HETATM    3  C1  UNL     1     -14.906   1.005   3.293  1.00  0.00     0.037 C 
ENDBRANCH   1   2
BRANCH   1   4
HETATM    4  C3  UNL     1     -16.910   0.996   4.877  1.00  0.00     0.268 C 
HETATM    5  C4  UNL     1     -18.377   1.320   5.151  1.00  0.00     0.037 C 
ENDBRANCH   1   4
BRANCH   1   6
HETATM    6  C5  UNL     1     -16.803   3.373   5.287  1.00  0.00     0.268 C 
HETATM    7  C6  UNL     1     -16.034   4.605   4.819  1.00  0.00     0.037 C 
ENDBRANCH   1   6
TORSDOF 3
ENDMDL
MODEL 2
REMARK VINA RESULT:      -2.9      2.309      2.783
REMARK  3 active torsions:
REMARK  status: ('A' for Active; 'I' for Inactive)
REMARK    1  A    between atoms: C2_2  and  N1_3 
REMARK    2  A    between atoms: N1_3  and  C3_4 
REMARK    3  A    between atoms: N1_3  and  C5_6 
ROOT
HETATM    1  N1  UNL     1     -16.529   2.611   6.893  1.00  0.00     0.087 N 
ENDROOT
BRANCH   1   2
HETATM    2  C2  UNL     1     -16.600   2.016   5.547  1.00  0.00     0.268 C 
HETATM    3  C1  UNL     1     -18.034   1.600   5.248  1.00  0.00     0.037 C 
ENDBRANCH   1   2
BRANCH   1   4
HETATM    4  C3  UNL     1     -16.866   1.639   7.947  1.00  0.00     0.268 C 
HETATM    5  C4  UNL     1     -17.977   2.136   8.869  1.00  0.00     0.037 C 
ENDBRANCH   1   4
BRANCH   1   6
HETATM    6  C5  UNL     1     -17.384   3.805   7.015  1.00  0.00     0.268 C 
HETATM    7  C6  UNL     1     -16.643   5.094   6.669  1.00  0.00     0.037 C 
ENDBRANCH   1   6
TORSDOF 3
ENDMDL
MODEL 3
REMARK VINA RESULT:      -2.9      1.696      3.040
REMARK  3 active torsions:
REMARK  status: ('A' for Active; 'I' for Inactive)
REMARK    1  A    between atoms: C2_2  and  N1_3 
REMARK    2  A    between atoms: N1_3  and  C3_4 
REMARK    3  A    between atoms: N1_3  and  C5_6 
ROOT
HETATM    1  N1  UNL     1     -16.711   3.038   6.019  1.00  0.00     0.087 N 
ENDROOT
BRANCH   1   2
HETATM    2  C2  UNL     1     -16.363   4.149   5.116  1.00  0.00     0.268 C 
HETATM    3  C1  UNL     1     -16.258   5.442   5.915  1.00  0.00     0.037 C 
ENDBRANCH   1   2
BRANCH   1   4
HETATM    4  C3  UNL     1     -17.700   2.127   5.418  1.00  0.00     0.268 C 
HETATM    5  C4  UNL     1     -17.059   0.877   4.820  1.00  0.00     0.037 C 
ENDBRANCH   1   4
BRANCH   1   6
HETATM    6  C5  UNL     1     -17.195   3.519   7.325  1.00  0.00     0.268 C 
HETATM    7  C6  UNL     1     -17.877   2.422   8.138  1.00  0.00     0.037 C 
ENDBRANCH   1   6
TORSDOF 3
ENDMDL
MODEL 4
REMARK VINA RESULT:      -2.8      2.272      3.097
REMARK  3 active torsions:
REMARK  status: ('A' for Active; 'I' for Inactive)
REMARK    1  A    between atoms: C2_2  and  N1_3 
REMARK    2  A    between atoms: N1_3  and  C3_4 
REMARK    3  A    between atoms: N1_3  and  C5_6 
ROOT
HETATM    1  N1  UNL     1     -17.496   2.995   6.701  1.00  0.00     0.087 N 
ENDROOT
BRANCH   1   2
HETATM    2  C2  UNL     1     -17.882   2.321   7.952  1.00  0.00     0.268 C 
HETATM    3  C1  UNL     1     -16.751   1.410   8.413  1.00  0.00     0.037 C 
ENDBRANCH   1   2
BRANCH   1   4
HETATM    4  C3  UNL     1     -17.217   2.035   5.619  1.00  0.00     0.268 C 
HETATM    5  C4  UNL     1     -18.479   1.339   5.113  1.00  0.00     0.037 C 
ENDBRANCH   1   4
BRANCH   1   6
HETATM    6  C5  UNL     1     -16.342   3.892   6.890  1.00  0.00     0.268 C 
HETATM    7  C6  UNL     1     -16.687   5.355   6.628  1.00  0.00     0.037 C 
ENDBRANCH   1   6
TORSDOF 3
ENDMDL
MODEL 5
REMARK VINA RESULT:      -2.8     12.953     14.283
REMARK  3 active torsions:
REMARK  status: ('A' for Active; 'I' for Inactive)
REMARK    1  A    between atoms: C2_2  and  N1_3 
REMARK    2  A    between atoms: N1_3  and  C3_4 
REMARK    3  A    between atoms: N1_3  and  C5_6 
ROOT
HETATM    1  N1  UNL     1     -16.397  12.346  -5.312  1.00  0.00     0.087 N 
ENDROOT
BRANCH   1   2
HETATM    2  C2  UNL     1     -16.429  13.819  -5.303  1.00  0.00     0.268 C 
HETATM    3  C1  UNL     1     -15.617  14.341  -4.125  1.00  0.00     0.037 C 
ENDBRANCH   1   2
BRANCH   1   4
HETATM    4  C3  UNL     1     -17.722  11.765  -5.585  1.00  0.00     0.268 C 
HETATM    5  C4  UNL     1     -18.624  12.708  -6.378  1.00  0.00     0.037 C 
ENDBRANCH   1   4
BRANCH   1   6
HETATM    6  C5  UNL     1     -15.854  11.798  -4.056  1.00  0.00     0.268 C 
HETATM    7  C6  UNL     1     -16.361  10.390  -3.763  1.00  0.00     0.037 C 
ENDBRANCH   1   6
TORSDOF 3
ENDMDL
MODEL 6
REMARK VINA RESULT:      -2.7     13.050     14.273
REMARK  3 active torsions:
REMARK  status: ('A' for Active; 'I' for Inactive)
REMARK    1  A    between atoms: C2_2  and  N1_3 
REMARK    2  A    between atoms: N1_3  and  C3_4 
REMARK    3  A    between atoms: N1_3  and  C5_6 
ROOT
HETATM    1  N1  UNL     1     -16.393  12.365  -5.429  1.00  0.00     0.087 N 
ENDROOT
BRANCH   1   2
HETATM    2  C2  UNL     1     -17.286  13.376  -6.022  1.00  0.00     0.268 C 
HETATM    3  C1  UNL     1     -18.611  12.728  -6.400  1.00  0.00     0.037 C 
ENDBRANCH   1   2
BRANCH   1   4
HETATM    4  C3  UNL     1     -17.123  11.152  -5.024  1.00  0.00     0.268 C 
HETATM    5  C4  UNL     1     -16.447  10.419  -3.868  1.00  0.00     0.037 C 
ENDBRANCH   1   4
BRANCH   1   6
HETATM    6  C5  UNL     1     -15.632  12.902  -4.287  1.00  0.00     0.268 C 
HETATM    7  C6  UNL     1     -15.675  14.426  -4.219  1.00  0.00     0.037 C 
ENDBRANCH   1   6
TORSDOF 3
ENDMDL
MODEL 7
REMARK VINA RESULT:      -2.7     14.362     15.752
REMARK  3 active torsions:
REMARK  status: ('A' for Active; 'I' for Inactive)
REMARK    1  A    between atoms: C2_2  and  N1_3 
REMARK    2  A    between atoms: N1_3  and  C3_4 
REMARK    3  A    between atoms: N1_3  and  C5_6 
ROOT
HETATM    1  N1  UNL     1     -17.221  13.640  -5.890  1.00  0.00     0.087 N 
ENDROOT
BRANCH   1   2
HETATM    2  C2  UNL     1     -16.739  14.180  -7.174  1.00  0.00     0.268 C 
HETATM    3  C1  UNL     1     -17.069  15.664  -7.260  1.00  0.00     0.037 C 
ENDBRANCH   1   2
BRANCH   1   4
HETATM    4  C3  UNL     1     -16.113  13.205  -5.023  1.00  0.00     0.268 C 
HETATM    5  C4  UNL     1     -15.621  14.317  -4.099  1.00  0.00     0.037 C 
ENDBRANCH   1   4
BRANCH   1   6
HETATM    6  C5  UNL     1     -18.178  12.536  -6.080  1.00  0.00     0.268 C 
HETATM    7  C6  UNL     1     -17.728  11.246  -5.400  1.00  0.00     0.037 C 
ENDBRANCH   1   6
TORSDOF 3
ENDMDL
MODEL 8
REMARK VINA RESULT:      -2.7     14.330     15.555
REMARK  3 active torsions:
REMARK  status: ('A' for Active; 'I' for Inactive)
REMARK    1  A    between atoms: C2_2  and  N1_3 
REMARK    2  A    between atoms: N1_3  and  C3_4 
REMARK    3  A    between atoms: N1_3  and  C5_6 
ROOT
HETATM    1  N1  UNL     1     -17.176  13.619  -5.812  1.00  0.00     0.087 N 
ENDROOT
BRANCH   1   2
HETATM    2  C2  UNL     1     -16.088  13.166  -4.927  1.00  0.00     0.268 C 
HETATM    3  C1  UNL     1     -15.591  14.336  -4.088  1.00  0.00     0.037 C 
ENDBRANCH   1   2
BRANCH   1   4
HETATM    4  C3  UNL     1     -18.142  12.545  -6.096  1.00  0.00     0.268 C 
HETATM    5  C4  UNL     1     -17.762  11.224  -5.430  1.00  0.00     0.037 C 
ENDBRANCH   1   4
BRANCH   1   6
HETATM    6  C5  UNL     1     -16.662  14.183  -7.073  1.00  0.00     0.268 C 
HETATM    7  C6  UNL     1     -17.074  15.639  -7.275  1.00  0.00     0.037 C 
ENDBRANCH   1   6
TORSDOF 3
ENDMDL
MODEL 9
REMARK VINA RESULT:      -2.7     12.992     14.418
REMARK  3 active torsions:
REMARK  status: ('A' for Active; 'I' for Inactive)
REMARK    1  A    between atoms: C2_2  and  N1_3 
REMARK    2  A    between atoms: N1_3  and  C3_4 
REMARK    3  A    between atoms: N1_3  and  C5_6 
ROOT
HETATM    1  N1  UNL     1     -16.822  12.619  -4.906  1.00  0.00     0.087 N 
ENDROOT
BRANCH   1   2
HETATM    2  C2  UNL     1     -17.337  13.306  -6.103  1.00  0.00     0.268 C 
HETATM    3  C1  UNL     1     -18.699  12.735  -6.474  1.00  0.00     0.037 C 
ENDBRANCH   1   2
BRANCH   1   4
HETATM    4  C3  UNL     1     -15.403  12.927  -4.659  1.00  0.00     0.268 C 
HETATM    5  C4  UNL     1     -15.215  14.122  -3.728  1.00  0.00     0.037 C 
ENDBRANCH   1   4
BRANCH   1   6
HETATM    6  C5  UNL     1     -17.018  11.161  -4.979  1.00  0.00     0.268 C 
HETATM    7  C6  UNL     1     -16.368  10.422  -3.813  1.00  0.00     0.037 C 
ENDBRANCH   1   6
TORSDOF 3
ENDMDL
