MODEL 1
REMARK VINA RESULT:      -5.2      0.000      0.000
REMARK  0 active torsions:
REMARK  status: ('A' for Active; 'I' for Inactive)
ROOT
HETATM    1  C1  UNL     1     -14.783   0.506   3.157  1.00  0.00     0.157 C 
HETATM    2  N1  UNL     1     -15.541   0.884   4.324  1.00  0.00    -0.340 N 
HETATM    3  C2  UNL     1     -16.243   0.037   5.142  1.00  0.00     0.184 A 
HETATM    4  N2  UNL     1     -16.830   0.688   6.125  1.00  0.00    -0.336 N 
ATOM      5  H2  UNL     1     -17.411   0.304   6.870  1.00  0.00     0.168 HD
HETATM    6  C3  UNL     1     -16.488   1.991   5.923  1.00  0.00     0.145 A 
HETATM    7  C4  UNL     1     -15.697   2.144   4.825  1.00  0.00     0.149 A 
HETATM    8  C5  UNL     1     -15.200   3.404   4.391  1.00  0.00     0.282 A 
HETATM    9  O1  UNL     1     -14.488   3.531   3.400  1.00  0.00    -0.265 OA
HETATM   10  N3  UNL     1     -15.611   4.458   5.213  1.00  0.00    -0.269 N 
HETATM   11  C6  UNL     1     -16.429   4.340   6.356  1.00  0.00     0.332 A 
HETATM   12  O2  UNL     1     -16.740   5.335   7.018  1.00  0.00    -0.246 OA
HETATM   13  N4  UNL     1     -16.866   3.059   6.698  1.00  0.00    -0.287 N 
HETATM   14  C7  UNL     1     -17.710   2.852   7.860  1.00  0.00     0.163 C 
HETATM   15  C8  UNL     1     -15.170   5.797   4.876  1.00  0.00     0.164 C 
ENDROOT
TORSDOF 0
ENDMDL
MODEL 2
REMARK VINA RESULT:      -5.0     12.799     14.698
REMARK  0 active torsions:
REMARK  status: ('A' for Active; 'I' for Inactive)
ROOT
HETATM    1  C1  UNL     1     -14.376  11.334  -2.563  1.00  0.00     0.157 C 
HETATM    2  N1  UNL     1     -15.462  11.442  -3.504  1.00  0.00    -0.340 N 
HETATM    3  C2  UNL     1     -16.379  10.468  -3.797  1.00  0.00     0.184 A 
HETATM    4  N2  UNL     1     -17.248  10.874  -4.701  1.00  0.00    -0.336 N 
ATOM      5  H2  UNL     1     -18.029  10.351  -5.096  1.00  0.00     0.168 HD
HETATM    6  C3  UNL     1     -16.866  12.149  -4.990  1.00  0.00     0.145 A 
HETATM    7  C4  UNL     1     -15.773  12.528  -4.272  1.00  0.00     0.149 A 
HETATM    8  C5  UNL     1     -15.173  13.811  -4.385  1.00  0.00     0.282 A 
HETATM    9  O1  UNL     1     -14.187  14.143  -3.733  1.00  0.00    -0.265 OA
HETATM   10  N3  UNL     1     -15.826  14.634  -5.308  1.00  0.00    -0.269 N 
HETATM   11  C6  UNL     1     -16.958  14.278  -6.070  1.00  0.00     0.332 A 
HETATM   12  O2  UNL     1     -17.465  15.078  -6.863  1.00  0.00    -0.246 OA
HETATM   13  N4  UNL     1     -17.473  12.994  -5.886  1.00  0.00    -0.287 N 
HETATM   14  C7  UNL     1     -18.637  12.550  -6.631  1.00  0.00     0.163 C 
HETATM   15  C8  UNL     1     -15.308  15.972  -5.515  1.00  0.00     0.164 C 
ENDROOT
TORSDOF 0
ENDMDL
MODEL 3
REMARK VINA RESULT:      -5.0     12.667     14.665
REMARK  0 active torsions:
REMARK  status: ('A' for Active; 'I' for Inactive)
ROOT
HETATM    1  C1  UNL     1     -15.594   9.963  -3.929  1.00  0.00     0.157 C 
HETATM    2  N1  UNL     1     -15.438  11.346  -3.557  1.00  0.00    -0.340 N 
HETATM    3  C2  UNL     1     -14.909  11.814  -2.382  1.00  0.00     0.184 A 
HETATM    4  N2  UNL     1     -14.903  13.131  -2.342  1.00  0.00    -0.336 N 
ATOM      5  H2  UNL     1     -14.567  13.732  -1.590  1.00  0.00     0.168 HD
HETATM    6  C3  UNL     1     -15.447  13.509  -3.532  1.00  0.00     0.145 A 
HETATM    7  C4  UNL     1     -15.786  12.437  -4.301  1.00  0.00     0.149 A 
HETATM    8  C5  UNL     1     -16.372  12.556  -5.590  1.00  0.00     0.282 A 
HETATM    9  O1  UNL     1     -16.674  11.583  -6.275  1.00  0.00    -0.265 OA
HETATM   10  N3  UNL     1     -16.560  13.887  -5.977  1.00  0.00    -0.269 N 
HETATM   11  C6  UNL     1     -16.223  15.022  -5.211  1.00  0.00     0.332 A 
HETATM   12  O2  UNL     1     -16.429  16.161  -5.642  1.00  0.00    -0.246 OA
HETATM   13  N4  UNL     1     -15.652  14.799  -3.958  1.00  0.00    -0.287 N 
HETATM   14  C7  UNL     1     -15.276  15.914  -3.108  1.00  0.00     0.163 C 
HETATM   15  C8  UNL     1     -17.152  14.142  -7.276  1.00  0.00     0.164 C 
ENDROOT
TORSDOF 0
ENDMDL
MODEL 4
REMARK VINA RESULT:      -5.0     13.824     15.744
REMARK  0 active torsions:
REMARK  status: ('A' for Active; 'I' for Inactive)
ROOT
HETATM    1  C1  UNL     1     -14.472  14.042  -1.697  1.00  0.00     0.157 C 
HETATM    2  N1  UNL     1     -14.953  14.697  -2.887  1.00  0.00    -0.340 N 
HETATM    3  C2  UNL     1     -14.907  16.042  -3.146  1.00  0.00     0.184 A 
HETATM    4  N2  UNL     1     -15.428  16.328  -4.322  1.00  0.00    -0.336 N 
ATOM      5  H2  UNL     1     -15.519  17.245  -4.758  1.00  0.00     0.168 HD
HETATM    6  C3  UNL     1     -15.816  15.123  -4.824  1.00  0.00     0.145 A 
HETATM    7  C4  UNL     1     -15.539  14.101  -3.967  1.00  0.00     0.149 A 
HETATM    8  C5  UNL     1     -15.844  12.742  -4.250  1.00  0.00     0.282 A 
HETATM    9  O1  UNL     1     -15.589  11.829  -3.471  1.00  0.00    -0.265 OA
HETATM   10  N3  UNL     1     -16.454  12.574  -5.496  1.00  0.00    -0.269 N 
HETATM   11  C6  UNL     1     -16.758  13.604  -6.410  1.00  0.00     0.332 A 
HETATM   12  O2  UNL     1     -17.301  13.354  -7.491  1.00  0.00    -0.246 OA
HETATM   13  N4  UNL     1     -16.419  14.906  -6.039  1.00  0.00    -0.287 N 
HETATM   14  C7  UNL     1     -16.697  16.023  -6.923  1.00  0.00     0.163 C 
HETATM   15  C8  UNL     1     -16.816  11.230  -5.903  1.00  0.00     0.164 C 
ENDROOT
TORSDOF 0
ENDMDL
MODEL 5
REMARK VINA RESULT:      -5.0     12.215     14.393
REMARK  0 active torsions:
REMARK  status: ('A' for Active; 'I' for Inactive)
ROOT
HETATM    1  C1  UNL     1     -16.197  15.959  -5.902  1.00  0.00     0.157 C 
HETATM    2  N1  UNL     1     -16.304  14.573  -5.526  1.00  0.00    -0.340 N 
HETATM    3  C2  UNL     1     -16.985  13.599  -6.209  1.00  0.00     0.184 A 
HETATM    4  N2  UNL     1     -16.894  12.430  -5.608  1.00  0.00    -0.336 N 
ATOM      5  H2  UNL     1     -17.304  11.543  -5.901  1.00  0.00     0.168 HD
HETATM    6  C3  UNL     1     -16.128  12.672  -4.508  1.00  0.00     0.145 A 
HETATM    7  C4  UNL     1     -15.750  13.978  -4.429  1.00  0.00     0.149 A 
HETATM    8  C5  UNL     1     -14.947  14.494  -3.376  1.00  0.00     0.282 A 
HETATM    9  O1  UNL     1     -14.611  15.673  -3.314  1.00  0.00    -0.265 OA
HETATM   10  N3  UNL     1     -14.591  13.519  -2.440  1.00  0.00    -0.269 N 
HETATM   11  C6  UNL     1     -14.963  12.159  -2.487  1.00  0.00     0.332 A 
HETATM   12  O2  UNL     1     -14.598  11.371  -1.608  1.00  0.00    -0.246 OA
HETATM   13  N4  UNL     1     -15.754  11.750  -3.562  1.00  0.00    -0.287 N 
HETATM   14  C7  UNL     1     -16.178  10.368  -3.684  1.00  0.00     0.163 C 
HETATM   15  C8  UNL     1     -13.770  13.920  -1.314  1.00  0.00     0.164 C 
ENDROOT
TORSDOF 0
ENDMDL
MODEL 6
REMARK VINA RESULT:      -5.0      1.644      3.697
REMARK  0 active torsions:
REMARK  status: ('A' for Active; 'I' for Inactive)
ROOT
HETATM    1  C1  UNL     1     -14.640   6.365   4.408  1.00  0.00     0.157 C 
HETATM    2  N1  UNL     1     -15.463   5.443   5.147  1.00  0.00    -0.340 N 
HETATM    3  C2  UNL     1     -16.305   5.759   6.181  1.00  0.00     0.184 A 
HETATM    4  N2  UNL     1     -16.920   4.692   6.651  1.00  0.00    -0.336 N 
ATOM      5  H2  UNL     1     -17.595   4.646   7.414  1.00  0.00     0.168 HD
HETATM    6  C3  UNL     1     -16.452   3.667   5.887  1.00  0.00     0.145 A 
HETATM    7  C4  UNL     1     -15.556   4.094   4.954  1.00  0.00     0.149 A 
HETATM    8  C5  UNL     1     -14.918   3.224   4.030  1.00  0.00     0.282 A 
HETATM    9  O1  UNL     1     -14.112   3.619   3.193  1.00  0.00    -0.265 OA
HETATM   10  N3  UNL     1     -15.311   1.891   4.184  1.00  0.00    -0.269 N 
HETATM   11  C6  UNL     1     -16.234   1.409   5.135  1.00  0.00     0.332 A 
HETATM   12  O2  UNL     1     -16.516   0.208   5.193  1.00  0.00    -0.246 OA
HETATM   13  N4  UNL     1     -16.806   2.345   5.999  1.00  0.00    -0.287 N 
HETATM   14  C7  UNL     1     -17.765   1.931   7.006  1.00  0.00     0.163 C 
HETATM   15  C8  UNL     1     -14.729   0.901   3.298  1.00  0.00     0.164 C 
ENDROOT
TORSDOF 0
ENDMDL
MODEL 7
REMARK VINA RESULT:      -5.0     13.153     15.457
REMARK  0 active torsions:
REMARK  status: ('A' for Active; 'I' for Inactive)
ROOT
HETATM    1  C1  UNL     1     -14.201  16.198  -4.454  1.00  0.00     0.157 C 
HETATM    2  N1  UNL     1     -15.270  15.505  -5.126  1.00  0.00    -0.340 N 
HETATM    3  C2  UNL     1     -16.058  16.008  -6.128  1.00  0.00     0.184 A 
HETATM    4  N2  UNL     1     -16.949  15.126  -6.535  1.00  0.00    -0.336 N 
ATOM      5  H2  UNL     1     -17.654  15.241  -7.263  1.00  0.00     0.168 HD
HETATM    6  C3  UNL     1     -16.717  14.028  -5.764  1.00  0.00     0.145 A 
HETATM    7  C4  UNL     1     -15.692  14.228  -4.889  1.00  0.00     0.149 A 
HETATM    8  C5  UNL     1     -15.248  13.239  -3.970  1.00  0.00     0.282 A 
HETATM    9  O1  UNL     1     -14.323  13.429  -3.186  1.00  0.00    -0.265 OA
HETATM   10  N3  UNL     1     -15.973  12.047  -4.066  1.00  0.00    -0.269 N 
HETATM   11  C6  UNL     1     -17.039  11.802  -4.957  1.00  0.00     0.332 A 
HETATM   12  O2  UNL     1     -17.621  10.713  -4.965  1.00  0.00    -0.246 OA
HETATM   13  N4  UNL     1     -17.400  12.838  -5.820  1.00  0.00    -0.287 N 
HETATM   14  C7  UNL     1     -18.486  12.667  -6.768  1.00  0.00     0.163 C 
HETATM   15  C8  UNL     1     -15.616  10.957  -3.180  1.00  0.00     0.164 C 
ENDROOT
TORSDOF 0
ENDMDL
MODEL 8
REMARK VINA RESULT:      -4.9     12.586     14.487
REMARK  0 active torsions:
REMARK  status: ('A' for Active; 'I' for Inactive)
ROOT
HETATM    1  C1  UNL     1     -18.553  12.633  -6.676  1.00  0.00     0.157 C 
HETATM    2  N1  UNL     1     -17.641  12.191  -5.652  1.00  0.00    -0.340 N 
HETATM    3  C2  UNL     1     -17.628  10.957  -5.057  1.00  0.00     0.184 A 
HETATM    4  N2  UNL     1     -16.671  10.861  -4.156  1.00  0.00    -0.336 N 
ATOM      5  H2  UNL     1     -16.442  10.058  -3.572  1.00  0.00     0.168 HD
HETATM    6  C3  UNL     1     -16.057  12.076  -4.183  1.00  0.00     0.145 A 
HETATM    7  C4  UNL     1     -16.629  12.916  -5.091  1.00  0.00     0.149 A 
HETATM    8  C5  UNL     1     -16.178  14.245  -5.315  1.00  0.00     0.282 A 
HETATM    9  O1  UNL     1     -16.699  14.993  -6.136  1.00  0.00    -0.265 OA
HETATM   10  N3  UNL     1     -15.090  14.590  -4.508  1.00  0.00    -0.269 N 
HETATM   11  C6  UNL     1     -14.471  13.751  -3.557  1.00  0.00     0.332 A 
HETATM   12  O2  UNL     1     -13.513  14.149  -2.888  1.00  0.00    -0.246 OA
HETATM   13  N4  UNL     1     -14.989  12.463  -3.411  1.00  0.00    -0.287 N 
HETATM   14  C7  UNL     1     -14.409  11.537  -2.455  1.00  0.00     0.163 C 
HETATM   15  C8  UNL     1     -14.536  15.923  -4.642  1.00  0.00     0.164 C 
ENDROOT
TORSDOF 0
ENDMDL
MODEL 9
REMARK VINA RESULT:      -4.6     12.237     13.714
REMARK  0 active torsions:
REMARK  status: ('A' for Active; 'I' for Inactive)
ROOT
HETATM    1  C1  UNL     1     -12.976   8.049  -7.616  1.00  0.00     0.157 C 
HETATM    2  N1  UNL     1     -13.611   8.589  -6.440  1.00  0.00    -0.340 N 
HETATM    3  C2  UNL     1     -13.395   8.189  -5.148  1.00  0.00     0.184 A 
HETATM    4  N2  UNL     1     -14.128   8.878  -4.297  1.00  0.00    -0.336 N 
ATOM      5  H2  UNL     1     -14.162   8.784  -3.282  1.00  0.00     0.168 HD
HETATM    6  C3  UNL     1     -14.832   9.744  -5.078  1.00  0.00     0.145 A 
HETATM    7  C4  UNL     1     -14.537   9.592  -6.399  1.00  0.00     0.149 A 
HETATM    8  C5  UNL     1     -15.134  10.372  -7.426  1.00  0.00     0.282 A 
HETATM    9  O1  UNL     1     -14.861  10.228  -8.614  1.00  0.00    -0.265 OA
HETATM   10  N3  UNL     1     -16.049  11.306  -6.931  1.00  0.00    -0.269 N 
HETATM   11  C6  UNL     1     -16.381  11.494  -5.573  1.00  0.00     0.332 A 
HETATM   12  O2  UNL     1     -17.207  12.348  -5.234  1.00  0.00    -0.246 OA
HETATM   13  N4  UNL     1     -15.740  10.676  -4.641  1.00  0.00    -0.287 N 
HETATM   14  C7  UNL     1     -16.026  10.806  -3.224  1.00  0.00     0.163 C 
HETATM   15  C8  UNL     1     -16.728  12.166  -7.881  1.00  0.00     0.164 C 
ENDROOT
TORSDOF 0
ENDMDL
