MODEL 1
REMARK VINA RESULT:      -6.5      0.000      0.000
REMARK  5 active torsions:
REMARK  status: ('A' for Active; 'I' for Inactive)
REMARK    1  A    between atoms: C2_2  and  C4_4 
REMARK    2  A    between atoms: C4_4  and  C5_5 
REMARK    3  A    between atoms: C8_8  and  C11_11 
REMARK    4  A    between atoms: C11_11  and  C13_13 
REMARK    5  A    between atoms: C13_13  and  O2_15 
ROOT
HETATM    1  C5  UNL     1     -17.031   3.454   6.237  1.00  0.00    -0.058 A 
HETATM    2  C6  UNL     1     -17.005   4.773   6.704  1.00  0.00     0.007 A 
HETATM    3  C7  UNL     1     -16.224   5.739   6.063  1.00  0.00     0.008 A 
HETATM    4  C8  UNL     1     -15.448   5.409   4.943  1.00  0.00    -0.044 A 
HETATM    5  C9  UNL     1     -15.474   4.085   4.481  1.00  0.00     0.008 A 
HETATM    6  C10 UNL     1     -16.256   3.119   5.121  1.00  0.00     0.007 A 
ENDROOT
BRANCH   4   7
HETATM    7  C11 UNL     1     -14.599   6.445   4.223  1.00  0.00     0.112 C 
HETATM    8  C12 UNL     1     -15.458   7.509   3.538  1.00  0.00     0.026 C 
BRANCH   7   9
HETATM    9  C13 UNL     1     -13.583   7.125   5.124  1.00  0.00     0.148 C 
HETATM   10  O1  UNL     1     -13.541   8.295   5.469  1.00  0.00    -0.649 OA
BRANCH   9  11
HETATM   11  O2  UNL     1     -12.605   6.279   5.520  1.00  0.00    -0.776 OA
HETATM   12  H18 UNL     1     -12.341   6.627   6.399  1.00  0.00     0.167 HD
ENDBRANCH   9  11
ENDBRANCH   7   9
ENDBRANCH   4   7
BRANCH   1  13
HETATM   13  C4  UNL     1     -17.877   2.410   6.925  1.00  0.00     0.042 C 
BRANCH  13  14
HETATM   14  C2  UNL     1     -17.464   2.137   8.385  1.00  0.00    -0.019 C 
HETATM   15  C1  UNL     1     -18.686   1.696   9.195  1.00  0.00     0.010 C 
HETATM   16  C3  UNL     1     -16.369   1.073   8.482  1.00  0.00     0.010 C 
ENDBRANCH  13  14
ENDBRANCH   1  13
TORSDOF 5
ENDMDL
MODEL 2
REMARK VINA RESULT:      -6.3      1.408      2.197
REMARK  5 active torsions:
REMARK  status: ('A' for Active; 'I' for Inactive)
REMARK    1  A    between atoms: C2_2  and  C4_4 
REMARK    2  A    between atoms: C4_4  and  C5_5 
REMARK    3  A    between atoms: C8_8  and  C11_11 
REMARK    4  A    between atoms: C11_11  and  C13_13 
REMARK    5  A    between atoms: C13_13  and  O2_15 
ROOT
HETATM    1  C5  UNL     1     -15.603   3.722   4.678  1.00  0.00    -0.058 A 
HETATM    2  C6  UNL     1     -16.245   4.916   5.023  1.00  0.00     0.007 A 
HETATM    3  C7  UNL     1     -15.737   6.146   4.597  1.00  0.00     0.008 A 
HETATM    4  C8  UNL     1     -14.573   6.212   3.818  1.00  0.00    -0.044 A 
HETATM    5  C9  UNL     1     -13.930   5.013   3.478  1.00  0.00     0.008 A 
HETATM    6  C10 UNL     1     -14.440   3.782   3.903  1.00  0.00     0.007 A 
ENDROOT
BRANCH   4   7
HETATM    7  C11 UNL     1     -14.006   7.538   3.333  1.00  0.00     0.112 C 
HETATM    8  C12 UNL     1     -15.103   8.468   2.811  1.00  0.00     0.026 C 
BRANCH   7   9
HETATM    9  C13 UNL     1     -13.189   8.267   4.386  1.00  0.00     0.148 C 
HETATM   10  O1  UNL     1     -13.499   8.528   5.536  1.00  0.00    -0.649 OA
BRANCH   9  11
HETATM   11  O2  UNL     1     -11.999   8.691   3.904  1.00  0.00    -0.776 OA
HETATM   12  H18 UNL     1     -11.937   8.255   3.027  1.00  0.00     0.167 HD
ENDBRANCH   9  11
ENDBRANCH   7   9
ENDBRANCH   4   7
BRANCH   1  13
HETATM   13  C4  UNL     1     -16.153   2.392   5.134  1.00  0.00     0.042 C 
BRANCH  13  14
HETATM   14  C2  UNL     1     -17.581   2.474   5.711  1.00  0.00    -0.019 C 
HETATM   15  C1  UNL     1     -18.443   1.355   5.119  1.00  0.00     0.010 C 
HETATM   16  C3  UNL     1     -17.589   2.378   7.238  1.00  0.00     0.010 C 
ENDBRANCH  13  14
ENDBRANCH   1  13
TORSDOF 5
ENDMDL
MODEL 3
REMARK VINA RESULT:      -6.3      2.038      3.015
REMARK  5 active torsions:
REMARK  status: ('A' for Active; 'I' for Inactive)
REMARK    1  A    between atoms: C2_2  and  C4_4 
REMARK    2  A    between atoms: C4_4  and  C5_5 
REMARK    3  A    between atoms: C8_8  and  C11_11 
REMARK    4  A    between atoms: C11_11  and  C13_13 
REMARK    5  A    between atoms: C13_13  and  O2_15 
ROOT
HETATM    1  C5  UNL     1     -15.317   4.253   4.458  1.00  0.00    -0.058 A 
HETATM    2  C6  UNL     1     -15.892   5.481   4.801  1.00  0.00     0.007 A 
HETATM    3  C7  UNL     1     -15.308   6.680   4.384  1.00  0.00     0.008 A 
HETATM    4  C8  UNL     1     -14.135   6.681   3.617  1.00  0.00    -0.044 A 
HETATM    5  C9  UNL     1     -13.560   5.447   3.279  1.00  0.00     0.008 A 
HETATM    6  C10 UNL     1     -14.144   4.247   3.695  1.00  0.00     0.007 A 
ENDROOT
BRANCH   4   7
HETATM    7  C11 UNL     1     -13.487   7.973   3.142  1.00  0.00     0.112 C 
HETATM    8  C12 UNL     1     -12.677   7.766   1.862  1.00  0.00     0.026 C 
BRANCH   7   9
HETATM    9  C13 UNL     1     -14.479   9.104   2.932  1.00  0.00     0.148 C 
HETATM   10  O1  UNL     1     -14.545  10.171   3.519  1.00  0.00    -0.649 OA
BRANCH   9  11
HETATM   11  O2  UNL     1     -15.405   8.802   1.993  1.00  0.00    -0.776 OA
HETATM   12  H18 UNL     1     -14.872   8.440   1.253  1.00  0.00     0.167 HD
ENDBRANCH   9  11
ENDBRANCH   7   9
ENDBRANCH   4   7
BRANCH   1  13
HETATM   13  C4  UNL     1     -15.948   2.956   4.904  1.00  0.00     0.042 C 
BRANCH  13  14
HETATM   14  C2  UNL     1     -17.317   3.133   5.592  1.00  0.00    -0.019 C 
HETATM   15  C1  UNL     1     -18.211   1.931   5.282  1.00  0.00     0.010 C 
HETATM   16  C3  UNL     1     -17.180   3.298   7.107  1.00  0.00     0.010 C 
ENDBRANCH  13  14
ENDBRANCH   1  13
TORSDOF 5
ENDMDL
MODEL 4
REMARK VINA RESULT:      -5.9      3.114      6.294
REMARK  5 active torsions:
REMARK  status: ('A' for Active; 'I' for Inactive)
REMARK    1  A    between atoms: C2_2  and  C4_4 
REMARK    2  A    between atoms: C4_4  and  C5_5 
REMARK    3  A    between atoms: C8_8  and  C11_11 
REMARK    4  A    between atoms: C11_11  and  C13_13 
REMARK    5  A    between atoms: C13_13  and  O2_15 
ROOT
HETATM    1  C5  UNL     1     -15.584   5.796   4.741  1.00  0.00    -0.058 A 
HETATM    2  C6  UNL     1     -15.297   4.541   4.195  1.00  0.00     0.007 A 
HETATM    3  C7  UNL     1     -15.713   3.373   4.841  1.00  0.00     0.008 A 
HETATM    4  C8  UNL     1     -16.423   3.432   6.048  1.00  0.00    -0.044 A 
HETATM    5  C9  UNL     1     -16.705   4.693   6.593  1.00  0.00     0.008 A 
HETATM    6  C10 UNL     1     -16.290   5.862   5.947  1.00  0.00     0.007 A 
ENDROOT
BRANCH   4   7
HETATM    7  C11 UNL     1     -16.896   2.176   6.763  1.00  0.00     0.112 C 
HETATM    8  C12 UNL     1     -17.829   2.502   7.930  1.00  0.00     0.026 C 
BRANCH   7   9
HETATM    9  C13 UNL     1     -17.575   1.176   5.843  1.00  0.00     0.148 C 
HETATM   10  O1  UNL     1     -18.583   1.328   5.173  1.00  0.00    -0.649 OA
BRANCH   9  11
HETATM   11  O2  UNL     1     -16.956  -0.026   5.851  1.00  0.00    -0.776 OA
HETATM   12  H18 UNL     1     -17.605  -0.622   5.418  1.00  0.00     0.167 HD
ENDBRANCH   9  11
ENDBRANCH   7   9
ENDBRANCH   4   7
BRANCH   1  13
HETATM   13  C4  UNL     1     -15.138   7.059   4.043  1.00  0.00     0.042 C 
BRANCH  13  14
HETATM   14  C2  UNL     1     -13.633   7.355   4.193  1.00  0.00    -0.019 C 
HETATM   15  C1  UNL     1     -12.944   7.235   2.832  1.00  0.00     0.010 C 
HETATM   16  C3  UNL     1     -13.378   8.746   4.780  1.00  0.00     0.010 C 
ENDBRANCH  13  14
ENDBRANCH   1  13
TORSDOF 5
ENDMDL
MODEL 5
REMARK VINA RESULT:      -5.9      3.460      6.224
REMARK  5 active torsions:
REMARK  status: ('A' for Active; 'I' for Inactive)
REMARK    1  A    between atoms: C2_2  and  C4_4 
REMARK    2  A    between atoms: C4_4  and  C5_5 
REMARK    3  A    between atoms: C8_8  and  C11_11 
REMARK    4  A    between atoms: C11_11  and  C13_13 
REMARK    5  A    between atoms: C13_13  and  O2_15 
ROOT
HETATM    1  C5  UNL     1     -15.702   4.734   4.600  1.00  0.00    -0.058 A 
HETATM    2  C6  UNL     1     -14.659   4.098   3.918  1.00  0.00     0.007 A 
HETATM    3  C7  UNL     1     -14.615   2.704   3.827  1.00  0.00     0.008 A 
HETATM    4  C8  UNL     1     -15.611   1.913   4.417  1.00  0.00    -0.044 A 
HETATM    5  C9  UNL     1     -16.652   2.555   5.103  1.00  0.00     0.008 A 
HETATM    6  C10 UNL     1     -16.697   3.950   5.193  1.00  0.00     0.007 A 
ENDROOT
BRANCH   4   7
HETATM    7  C11 UNL     1     -15.590   0.395   4.322  1.00  0.00     0.112 C 
HETATM    8  C12 UNL     1     -14.479  -0.102   3.396  1.00  0.00     0.026 C 
BRANCH   7   9
HETATM    9  C13 UNL     1     -15.465  -0.293   5.671  1.00  0.00     0.148 C 
HETATM   10  O1  UNL     1     -14.554  -0.214   6.478  1.00  0.00    -0.649 OA
BRANCH   9  11
HETATM   11  O2  UNL     1     -16.507  -1.117   5.922  1.00  0.00    -0.776 OA
HETATM   12  H18 UNL     1     -16.381  -1.368   6.862  1.00  0.00     0.167 HD
ENDBRANCH   9  11
ENDBRANCH   7   9
ENDBRANCH   4   7
BRANCH   1  13
HETATM   13  C4  UNL     1     -15.754   6.240   4.696  1.00  0.00     0.042 C 
BRANCH  13  14
HETATM   14  C2  UNL     1     -14.550   6.947   4.041  1.00  0.00    -0.019 C 
HETATM   15  C1  UNL     1     -15.046   8.012   3.060  1.00  0.00     0.010 C 
HETATM   16  C3  UNL     1     -13.629   7.591   5.080  1.00  0.00     0.010 C 
ENDBRANCH  13  14
ENDBRANCH   1  13
TORSDOF 5
ENDMDL
MODEL 6
REMARK VINA RESULT:      -5.8      2.692      6.619
REMARK  5 active torsions:
REMARK  status: ('A' for Active; 'I' for Inactive)
REMARK    1  A    between atoms: C2_2  and  C4_4 
REMARK    2  A    between atoms: C4_4  and  C5_5 
REMARK    3  A    between atoms: C8_8  and  C11_11 
REMARK    4  A    between atoms: C11_11  and  C13_13 
REMARK    5  A    between atoms: C13_13  and  O2_15 
ROOT
HETATM    1  C5  UNL     1     -13.669   7.065   2.822  1.00  0.00    -0.058 A 
HETATM    2  C6  UNL     1     -14.892   7.511   3.334  1.00  0.00     0.007 A 
HETATM    3  C7  UNL     1     -15.725   6.641   4.043  1.00  0.00     0.008 A 
HETATM    4  C8  UNL     1     -15.357   5.305   4.255  1.00  0.00    -0.044 A 
HETATM    5  C9  UNL     1     -14.132   4.862   3.736  1.00  0.00     0.008 A 
HETATM    6  C10 UNL     1     -13.297   5.732   3.027  1.00  0.00     0.007 A 
ENDROOT
BRANCH   4   7
HETATM    7  C11 UNL     1     -16.242   4.343   5.032  1.00  0.00     0.112 C 
HETATM    8  C12 UNL     1     -15.834   2.886   4.806  1.00  0.00     0.026 C 
BRANCH   7   9
HETATM    9  C13 UNL     1     -16.279   4.627   6.523  1.00  0.00     0.148 C 
HETATM   10  O1  UNL     1     -16.697   5.621   7.093  1.00  0.00    -0.649 OA
BRANCH   9  11
HETATM   11  O2  UNL     1     -15.721   3.631   7.247  1.00  0.00    -0.776 OA
HETATM   12  H18 UNL     1     -16.406   2.928   7.237  1.00  0.00     0.167 HD
ENDBRANCH   9  11
ENDBRANCH   7   9
ENDBRANCH   4   7
BRANCH   1  13
HETATM   13  C4  UNL     1     -12.766   8.004   2.059  1.00  0.00     0.042 C 
BRANCH  13  14
HETATM   14  C2  UNL     1     -12.930   9.485   2.455  1.00  0.00    -0.019 C 
HETATM   15  C1  UNL     1     -12.090   9.785   3.699  1.00  0.00     0.010 C 
HETATM   16  C3  UNL     1     -12.529  10.430   1.321  1.00  0.00     0.010 C 
ENDBRANCH  13  14
ENDBRANCH   1  13
TORSDOF 5
ENDMDL
MODEL 7
REMARK VINA RESULT:      -5.8      2.739      6.224
REMARK  5 active torsions:
REMARK  status: ('A' for Active; 'I' for Inactive)
REMARK    1  A    between atoms: C2_2  and  C4_4 
REMARK    2  A    between atoms: C4_4  and  C5_5 
REMARK    3  A    between atoms: C8_8  and  C11_11 
REMARK    4  A    between atoms: C11_11  and  C13_13 
REMARK    5  A    between atoms: C13_13  and  O2_15 
ROOT
HETATM    1  C5  UNL     1     -14.699   5.756   4.554  1.00  0.00    -0.058 A 
HETATM    2  C6  UNL     1     -14.846   4.462   4.043  1.00  0.00     0.007 A 
HETATM    3  C7  UNL     1     -15.718   3.553   4.648  1.00  0.00     0.008 A 
HETATM    4  C8  UNL     1     -16.462   3.915   5.780  1.00  0.00    -0.044 A 
HETATM    5  C9  UNL     1     -16.308   5.212   6.291  1.00  0.00     0.008 A 
HETATM    6  C10 UNL     1     -15.437   6.122   5.685  1.00  0.00     0.007 A 
ENDROOT
BRANCH   4   7
HETATM    7  C11 UNL     1     -17.425   2.947   6.450  1.00  0.00     0.112 C 
HETATM    8  C12 UNL     1     -17.963   1.908   5.466  1.00  0.00     0.026 C 
BRANCH   7   9
HETATM    9  C13 UNL     1     -16.829   2.237   7.653  1.00  0.00     0.148 C 
HETATM   10  O1  UNL     1     -15.859   1.499   7.692  1.00  0.00    -0.649 OA
BRANCH   9  11
HETATM   11  O2  UNL     1     -17.541   2.460   8.781  1.00  0.00    -0.776 OA
HETATM   12  H18 UNL     1     -17.599   1.573   9.196  1.00  0.00     0.167 HD
ENDBRANCH   9  11
ENDBRANCH   7   9
ENDBRANCH   4   7
BRANCH   1  13
HETATM   13  C4  UNL     1     -13.761   6.740   3.898  1.00  0.00     0.042 C 
BRANCH  13  14
HETATM   14  C2  UNL     1     -14.274   8.194   3.912  1.00  0.00    -0.019 C 
HETATM   15  C1  UNL     1     -13.149   9.136   4.350  1.00  0.00     0.010 C 
HETATM   16  C3  UNL     1     -14.808   8.627   2.545  1.00  0.00     0.010 C 
ENDBRANCH  13  14
ENDBRANCH   1  13
TORSDOF 5
ENDMDL
MODEL 8
REMARK VINA RESULT:      -5.5      3.373      5.645
REMARK  5 active torsions:
REMARK  status: ('A' for Active; 'I' for Inactive)
REMARK    1  A    between atoms: C2_2  and  C4_4 
REMARK    2  A    between atoms: C4_4  and  C5_5 
REMARK    3  A    between atoms: C8_8  and  C11_11 
REMARK    4  A    between atoms: C11_11  and  C13_13 
REMARK    5  A    between atoms: C13_13  and  O2_15 
ROOT
HETATM    1  C5  UNL     1     -14.419   7.506   4.460  1.00  0.00    -0.058 A 
HETATM    2  C6  UNL     1     -14.862   7.841   3.176  1.00  0.00     0.007 A 
HETATM    3  C7  UNL     1     -14.304   8.924   2.491  1.00  0.00     0.008 A 
HETATM    4  C8  UNL     1     -13.294   9.701   3.075  1.00  0.00    -0.044 A 
HETATM    5  C9  UNL     1     -12.856   9.364   4.364  1.00  0.00     0.008 A 
HETATM    6  C10 UNL     1     -13.412   8.279   5.048  1.00  0.00     0.007 A 
ENDROOT
BRANCH   4   7
HETATM    7  C11 UNL     1     -12.665  10.878   2.346  1.00  0.00     0.112 C 
HETATM    8  C12 UNL     1     -11.304  11.252   2.936  1.00  0.00     0.026 C 
BRANCH   7   9
HETATM    9  C13 UNL     1     -12.518  10.654   0.850  1.00  0.00     0.148 C 
HETATM   10  O1  UNL     1     -13.159  11.159  -0.056  1.00  0.00    -0.649 OA
BRANCH   9  11
HETATM   11  O2  UNL     1     -11.571   9.733   0.563  1.00  0.00    -0.776 OA
HETATM   12  H18 UNL     1     -10.732  10.239   0.625  1.00  0.00     0.167 HD
ENDBRANCH   9  11
ENDBRANCH   7   9
ENDBRANCH   4   7
BRANCH   1  13
HETATM   13  C4  UNL     1     -15.016   6.333   5.199  1.00  0.00     0.042 C 
BRANCH  13  14
HETATM   14  C2  UNL     1     -15.462   5.179   4.279  1.00  0.00    -0.019 C 
HETATM   15  C1  UNL     1     -14.232   4.447   3.735  1.00  0.00     0.010 C 
HETATM   16  C3  UNL     1     -16.374   4.187   5.005  1.00  0.00     0.010 C 
ENDBRANCH  13  14
ENDBRANCH   1  13
TORSDOF 5
ENDMDL
MODEL 9
REMARK VINA RESULT:      -5.2      2.872      6.979
REMARK  5 active torsions:
REMARK  status: ('A' for Active; 'I' for Inactive)
REMARK    1  A    between atoms: C2_2  and  C4_4 
REMARK    2  A    between atoms: C4_4  and  C5_5 
REMARK    3  A    between atoms: C8_8  and  C11_11 
REMARK    4  A    between atoms: C11_11  and  C13_13 
REMARK    5  A    between atoms: C13_13  and  O2_15 
ROOT
HETATM    1  C5  UNL     1     -14.182   8.473   3.600  1.00  0.00    -0.058 A 
HETATM    2  C6  UNL     1     -13.474   8.028   4.722  1.00  0.00     0.007 A 
HETATM    3  C7  UNL     1     -13.930   6.934   5.462  1.00  0.00     0.008 A 
HETATM    4  C8  UNL     1     -15.105   6.260   5.101  1.00  0.00    -0.044 A 
HETATM    5  C9  UNL     1     -15.813   6.713   3.978  1.00  0.00     0.008 A 
HETATM    6  C10 UNL     1     -15.357   7.806   3.236  1.00  0.00     0.007 A 
ENDROOT
BRANCH   4   7
HETATM    7  C11 UNL     1     -15.615   5.061   5.885  1.00  0.00     0.112 C 
HETATM    8  C12 UNL     1     -16.868   5.400   6.694  1.00  0.00     0.026 C 
BRANCH   7   9
HETATM    9  C13 UNL     1     -15.893   3.846   5.017  1.00  0.00     0.148 C 
HETATM   10  O1  UNL     1     -15.123   3.248   4.283  1.00  0.00    -0.649 OA
BRANCH   9  11
HETATM   11  O2  UNL     1     -17.187   3.459   5.079  1.00  0.00    -0.776 OA
HETATM   12  H18 UNL     1     -17.233   2.943   5.913  1.00  0.00     0.167 HD
ENDBRANCH   9  11
ENDBRANCH   7   9
ENDBRANCH   4   7
BRANCH   1  13
HETATM   13  C4  UNL     1     -13.689   9.652   2.797  1.00  0.00     0.042 C 
BRANCH  13  14
HETATM   14  C2  UNL     1     -12.163   9.661   2.576  1.00  0.00    -0.019 C 
HETATM   15  C1  UNL     1     -11.814   8.840   1.332  1.00  0.00     0.010 C 
HETATM   16  C3  UNL     1     -11.613  11.082   2.428  1.00  0.00     0.010 C 
ENDBRANCH  13  14
ENDBRANCH   1  13
TORSDOF 5
ENDMDL
