MODEL 1
REMARK VINA RESULT:      -4.3      0.000      0.000
REMARK  7 active torsions:
REMARK  status: ('A' for Active; 'I' for Inactive)
REMARK    1  A    between atoms: C2_2  and  C3_3 
REMARK    2  A    between atoms: C3_3  and  C4_4 
REMARK    3  A    between atoms: C4_4  and  C5_5 
REMARK    4  A    between atoms: C5_5  and  C6_6 
REMARK    5  A    between atoms: C6_6  and  C7_7 
REMARK    6  A    between atoms: C7_7  and  C8_8 
REMARK    7  A    between atoms: C8_8  and  O1_9 
ROOT
HETATM    1  C5  UNL     1     -16.056   5.572   6.098  1.00  0.00     0.000 C 
ENDROOT
BRANCH   1   2
HETATM    2  C4  UNL     1     -16.893   4.392   6.598  1.00  0.00     0.000 C 
BRANCH   2   3
HETATM    3  C3  UNL     1     -17.112   3.309   5.538  1.00  0.00    -0.000 C 
BRANCH   3   4
HETATM    4  C2  UNL     1     -17.682   2.007   6.102  1.00  0.00    -0.005 C 
HETATM    5  C1  UNL     1     -18.514   1.270   5.064  1.00  0.00     0.005 C 
ENDBRANCH   3   4
ENDBRANCH   2   3
ENDBRANCH   1   2
BRANCH   1   6
HETATM    6  C6  UNL     1     -15.919   5.617   4.572  1.00  0.00     0.002 C 
BRANCH   6   7
HETATM    7  C7  UNL     1     -14.733   6.458   4.092  1.00  0.00     0.026 C 
BRANCH   7   8
HETATM    8  C8  UNL     1     -13.923   7.041   5.246  1.00  0.00     0.164 C 
BRANCH   8   9
HETATM    9  O1  UNL     1     -12.696   6.346   5.412  1.00  0.00    -0.401 OA
HETATM   10  H18 UNL     1     -12.075   6.677   4.741  1.00  0.00     0.209 HD
ENDBRANCH   8   9
ENDBRANCH   7   8
ENDBRANCH   6   7
ENDBRANCH   1   6
TORSDOF 7
ENDMDL
MODEL 2
REMARK VINA RESULT:      -4.0      2.061      2.687
REMARK  7 active torsions:
REMARK  status: ('A' for Active; 'I' for Inactive)
REMARK    1  A    between atoms: C2_2  and  C3_3 
REMARK    2  A    between atoms: C3_3  and  C4_4 
REMARK    3  A    between atoms: C4_4  and  C5_5 
REMARK    4  A    between atoms: C5_5  and  C6_6 
REMARK    5  A    between atoms: C6_6  and  C7_7 
REMARK    6  A    between atoms: C7_7  and  C8_8 
REMARK    7  A    between atoms: C8_8  and  O1_9 
ROOT
HETATM    1  C5  UNL     1     -15.649   6.408   4.255  1.00  0.00     0.000 C 
ENDROOT
BRANCH   1   2
HETATM    2  C4  UNL     1     -16.112   5.083   4.866  1.00  0.00     0.000 C 
BRANCH   2   3
HETATM    3  C3  UNL     1     -16.508   5.199   6.341  1.00  0.00    -0.000 C 
BRANCH   3   4
HETATM    4  C2  UNL     1     -17.022   3.889   6.940  1.00  0.00    -0.005 C 
HETATM    5  C1  UNL     1     -17.478   2.925   5.856  1.00  0.00     0.005 C 
ENDBRANCH   3   4
ENDBRANCH   2   3
ENDBRANCH   1   2
BRANCH   1   6
HETATM    6  C6  UNL     1     -14.126   6.516   4.118  1.00  0.00     0.002 C 
BRANCH   6   7
HETATM    7  C7  UNL     1     -13.681   7.463   3.001  1.00  0.00     0.026 C 
BRANCH   7   8
HETATM    8  C8  UNL     1     -14.740   8.508   2.661  1.00  0.00     0.164 C 
BRANCH   8   9
HETATM    9  O1  UNL     1     -14.275   9.400   1.659  1.00  0.00    -0.401 OA
HETATM   10  H18 UNL     1     -13.316   9.270   1.569  1.00  0.00     0.209 HD
ENDBRANCH   8   9
ENDBRANCH   7   8
ENDBRANCH   6   7
ENDBRANCH   1   6
TORSDOF 7
ENDMDL
MODEL 3
REMARK VINA RESULT:      -3.8     11.444     13.586
REMARK  7 active torsions:
REMARK  status: ('A' for Active; 'I' for Inactive)
REMARK    1  A    between atoms: C2_2  and  C3_3 
REMARK    2  A    between atoms: C3_3  and  C4_4 
REMARK    3  A    between atoms: C4_4  and  C5_5 
REMARK    4  A    between atoms: C5_5  and  C6_6 
REMARK    5  A    between atoms: C6_6  and  C7_7 
REMARK    6  A    between atoms: C7_7  and  C8_8 
REMARK    7  A    between atoms: C8_8  and  O1_9 
ROOT
HETATM    1  C5  UNL     1     -16.313  12.850  -5.845  1.00  0.00     0.000 C 
ENDROOT
BRANCH   1   2
HETATM    2  C4  UNL     1     -16.222  14.267  -5.274  1.00  0.00     0.000 C 
BRANCH   2   3
HETATM    3  C3  UNL     1     -15.486  14.335  -3.932  1.00  0.00    -0.000 C 
BRANCH   3   4
HETATM    4  C2  UNL     1     -15.412  15.746  -3.348  1.00  0.00    -0.005 C 
HETATM    5  C1  UNL     1     -15.321  15.714  -1.830  1.00  0.00     0.005 C 
ENDBRANCH   3   4
ENDBRANCH   2   3
ENDBRANCH   1   2
BRANCH   1   6
HETATM    6  C6  UNL     1     -17.681  12.193  -5.627  1.00  0.00     0.002 C 
BRANCH   6   7
HETATM    7  C7  UNL     1     -17.596  10.822  -4.949  1.00  0.00     0.026 C 
BRANCH   7   8
HETATM    8  C8  UNL     1     -16.358  10.679  -4.068  1.00  0.00     0.164 C 
BRANCH   8   9
HETATM    9  O1  UNL     1     -16.700  10.181  -2.783  1.00  0.00    -0.401 OA
HETATM   10  H18 UNL     1     -15.886  10.145  -2.254  1.00  0.00     0.209 HD
ENDBRANCH   8   9
ENDBRANCH   7   8
ENDBRANCH   6   7
ENDBRANCH   1   6
TORSDOF 7
ENDMDL
MODEL 4
REMARK VINA RESULT:      -3.7      2.636      5.246
REMARK  7 active torsions:
REMARK  status: ('A' for Active; 'I' for Inactive)
REMARK    1  A    between atoms: C2_2  and  C3_3 
REMARK    2  A    between atoms: C3_3  and  C4_4 
REMARK    3  A    between atoms: C4_4  and  C5_5 
REMARK    4  A    between atoms: C5_5  and  C6_6 
REMARK    5  A    between atoms: C6_6  and  C7_7 
REMARK    6  A    between atoms: C7_7  and  C8_8 
REMARK    7  A    between atoms: C8_8  and  O1_9 
ROOT
HETATM    1  C5  UNL     1     -16.886   4.701   6.627  1.00  0.00     0.000 C 
ENDROOT
BRANCH   1   2
HETATM    2  C4  UNL     1     -15.988   5.812   6.078  1.00  0.00     0.000 C 
BRANCH   2   3
HETATM    3  C3  UNL     1     -15.915   5.834   4.548  1.00  0.00    -0.000 C 
BRANCH   3   4
HETATM    4  C2  UNL     1     -14.659   6.517   4.006  1.00  0.00    -0.005 C 
HETATM    5  C1  UNL     1     -13.802   7.076   5.132  1.00  0.00     0.005 C 
ENDBRANCH   3   4
ENDBRANCH   2   3
ENDBRANCH   1   2
BRANCH   1   6
HETATM    6  C6  UNL     1     -17.118   3.558   5.632  1.00  0.00     0.002 C 
BRANCH   6   7
HETATM    7  C7  UNL     1     -17.200   2.181   6.296  1.00  0.00     0.026 C 
BRANCH   7   8
HETATM    8  C8  UNL     1     -17.366   1.051   5.283  1.00  0.00     0.164 C 
BRANCH   8   9
HETATM    9  O1  UNL     1     -16.903  -0.182   5.813  1.00  0.00    -0.401 OA
HETATM   10  H18 UNL     1     -17.463  -0.889   5.449  1.00  0.00     0.209 HD
ENDBRANCH   8   9
ENDBRANCH   7   8
ENDBRANCH   6   7
ENDBRANCH   1   6
TORSDOF 7
ENDMDL
MODEL 5
REMARK VINA RESULT:      -3.7     11.031     13.313
REMARK  7 active torsions:
REMARK  status: ('A' for Active; 'I' for Inactive)
REMARK    1  A    between atoms: C2_2  and  C3_3 
REMARK    2  A    between atoms: C3_3  and  C4_4 
REMARK    3  A    between atoms: C4_4  and  C5_5 
REMARK    4  A    between atoms: C5_5  and  C6_6 
REMARK    5  A    between atoms: C6_6  and  C7_7 
REMARK    6  A    between atoms: C7_7  and  C8_8 
REMARK    7  A    between atoms: C8_8  and  O1_9 
ROOT
HETATM    1  C5  UNL     1     -17.378  11.219  -5.967  1.00  0.00     0.000 C 
ENDROOT
BRANCH   1   2
HETATM    2  C4  UNL     1     -18.122  12.556  -6.000  1.00  0.00     0.000 C 
BRANCH   2   3
HETATM    3  C3  UNL     1     -17.236  13.735  -6.412  1.00  0.00    -0.000 C 
BRANCH   3   4
HETATM    4  C2  UNL     1     -16.249  14.166  -5.326  1.00  0.00    -0.005 C 
HETATM    5  C1  UNL     1     -14.814  13.863  -5.729  1.00  0.00     0.005 C 
ENDBRANCH   3   4
ENDBRANCH   2   3
ENDBRANCH   1   2
BRANCH   1   6
HETATM    6  C6  UNL     1     -17.233  10.639  -4.555  1.00  0.00     0.002 C 
BRANCH   6   7
HETATM    7  C7  UNL     1     -15.778  10.386  -4.147  1.00  0.00     0.026 C 
BRANCH   7   8
HETATM    8  C8  UNL     1     -15.326  11.288  -3.003  1.00  0.00     0.164 C 
BRANCH   8   9
HETATM    9  O1  UNL     1     -16.070  11.028  -1.822  1.00  0.00    -0.401 OA
HETATM   10  H18 UNL     1     -15.640  10.290  -1.357  1.00  0.00     0.209 HD
ENDBRANCH   8   9
ENDBRANCH   7   8
ENDBRANCH   6   7
ENDBRANCH   1   6
TORSDOF 7
ENDMDL
MODEL 6
REMARK VINA RESULT:      -3.7     12.432     14.710
REMARK  7 active torsions:
REMARK  status: ('A' for Active; 'I' for Inactive)
REMARK    1  A    between atoms: C2_2  and  C3_3 
REMARK    2  A    between atoms: C3_3  and  C4_4 
REMARK    3  A    between atoms: C4_4  and  C5_5 
REMARK    4  A    between atoms: C5_5  and  C6_6 
REMARK    5  A    between atoms: C6_6  and  C7_7 
REMARK    6  A    between atoms: C7_7  and  C8_8 
REMARK    7  A    between atoms: C8_8  and  O1_9 
ROOT
HETATM    1  C5  UNL     1     -18.156  12.701  -6.255  1.00  0.00     0.000 C 
ENDROOT
BRANCH   1   2
HETATM    2  C4  UNL     1     -16.930  13.447  -6.789  1.00  0.00     0.000 C 
BRANCH   2   3
HETATM    3  C3  UNL     1     -16.858  14.905  -6.326  1.00  0.00    -0.000 C 
BRANCH   3   4
HETATM    4  C2  UNL     1     -16.791  15.909  -7.478  1.00  0.00    -0.005 C 
HETATM    5  C1  UNL     1     -16.582  15.210  -8.812  1.00  0.00     0.005 C 
ENDBRANCH   3   4
ENDBRANCH   2   3
ENDBRANCH   1   2
BRANCH   1   6
HETATM    6  C6  UNL     1     -17.803  11.415  -5.499  1.00  0.00     0.002 C 
BRANCH   6   7
HETATM    7  C7  UNL     1     -16.563  11.553  -4.610  1.00  0.00     0.026 C 
BRANCH   7   8
HETATM    8  C8  UNL     1     -16.299  10.302  -3.776  1.00  0.00     0.164 C 
BRANCH   8   9
HETATM    9  O1  UNL     1     -16.444  10.572  -2.389  1.00  0.00    -0.401 OA
HETATM   10  H18 UNL     1     -16.131  11.478  -2.230  1.00  0.00     0.209 HD
ENDBRANCH   8   9
ENDBRANCH   7   8
ENDBRANCH   6   7
ENDBRANCH   1   6
TORSDOF 7
ENDMDL
MODEL 7
REMARK VINA RESULT:      -3.6      2.071      3.258
REMARK  7 active torsions:
REMARK  status: ('A' for Active; 'I' for Inactive)
REMARK    1  A    between atoms: C2_2  and  C3_3 
REMARK    2  A    between atoms: C3_3  and  C4_4 
REMARK    3  A    between atoms: C4_4  and  C5_5 
REMARK    4  A    between atoms: C5_5  and  C6_6 
REMARK    5  A    between atoms: C6_6  and  C7_7 
REMARK    6  A    between atoms: C7_7  and  C8_8 
REMARK    7  A    between atoms: C8_8  and  O1_9 
ROOT
HETATM    1  C5  UNL     1     -14.397   6.637   3.740  1.00  0.00     0.000 C 
ENDROOT
BRANCH   1   2
HETATM    2  C4  UNL     1     -14.543   6.710   5.262  1.00  0.00     0.000 C 
BRANCH   2   3
HETATM    3  C3  UNL     1     -15.615   5.767   5.816  1.00  0.00    -0.000 C 
BRANCH   3   4
HETATM    4  C2  UNL     1     -16.192   4.815   4.767  1.00  0.00    -0.005 C 
HETATM    5  C1  UNL     1     -16.890   3.631   5.417  1.00  0.00     0.005 C 
ENDBRANCH   3   4
ENDBRANCH   2   3
ENDBRANCH   1   2
BRANCH   1   6
HETATM    6  C6  UNL     1     -13.592   7.800   3.149  1.00  0.00     0.002 C 
BRANCH   6   7
HETATM    7  C7  UNL     1     -14.255   9.165   3.353  1.00  0.00     0.026 C 
BRANCH   7   8
HETATM    8  C8  UNL     1     -13.269  10.231   3.822  1.00  0.00     0.164 C 
BRANCH   8   9
HETATM    9  O1  UNL     1     -12.442   9.738   4.867  1.00  0.00    -0.401 OA
HETATM   10  H18 UNL     1     -12.964   9.749   5.687  1.00  0.00     0.209 HD
ENDBRANCH   8   9
ENDBRANCH   7   8
ENDBRANCH   6   7
ENDBRANCH   1   6
TORSDOF 7
ENDMDL
MODEL 8
REMARK VINA RESULT:      -3.6     11.993     14.352
REMARK  7 active torsions:
REMARK  status: ('A' for Active; 'I' for Inactive)
REMARK    1  A    between atoms: C2_2  and  C3_3 
REMARK    2  A    between atoms: C3_3  and  C4_4 
REMARK    3  A    between atoms: C4_4  and  C5_5 
REMARK    4  A    between atoms: C5_5  and  C6_6 
REMARK    5  A    between atoms: C6_6  and  C7_7 
REMARK    6  A    between atoms: C7_7  and  C8_8 
REMARK    7  A    between atoms: C8_8  and  O1_9 
ROOT
HETATM    1  C5  UNL     1     -18.015  12.821  -6.452  1.00  0.00     0.000 C 
ENDROOT
BRANCH   1   2
HETATM    2  C4  UNL     1     -16.700  13.386  -6.995  1.00  0.00     0.000 C 
BRANCH   2   3
HETATM    3  C3  UNL     1     -16.679  14.916  -7.065  1.00  0.00    -0.000 C 
BRANCH   3   4
HETATM    4  C2  UNL     1     -16.324  15.583  -5.735  1.00  0.00    -0.005 C 
HETATM    5  C1  UNL     1     -15.016  15.045  -5.176  1.00  0.00     0.005 C 
ENDBRANCH   3   4
ENDBRANCH   2   3
ENDBRANCH   1   2
BRANCH   1   6
HETATM    6  C6  UNL     1     -17.827  11.573  -5.582  1.00  0.00     0.002 C 
BRANCH   6   7
HETATM    7  C7  UNL     1     -16.621  11.662  -4.642  1.00  0.00     0.026 C 
BRANCH   7   8
HETATM    8  C8  UNL     1     -16.236  10.308  -4.053  1.00  0.00     0.164 C 
BRANCH   8   9
HETATM    9  O1  UNL     1     -16.599  10.225  -2.682  1.00  0.00    -0.401 OA
HETATM   10  H18 UNL     1     -16.173  10.965  -2.218  1.00  0.00     0.209 HD
ENDBRANCH   8   9
ENDBRANCH   7   8
ENDBRANCH   6   7
ENDBRANCH   1   6
TORSDOF 7
ENDMDL
MODEL 9
REMARK VINA RESULT:      -3.5     10.892     12.954
REMARK  7 active torsions:
REMARK  status: ('A' for Active; 'I' for Inactive)
REMARK    1  A    between atoms: C2_2  and  C3_3 
REMARK    2  A    between atoms: C3_3  and  C4_4 
REMARK    3  A    between atoms: C4_4  and  C5_5 
REMARK    4  A    between atoms: C5_5  and  C6_6 
REMARK    5  A    between atoms: C6_6  and  C7_7 
REMARK    6  A    between atoms: C7_7  and  C8_8 
REMARK    7  A    between atoms: C8_8  and  O1_9 
ROOT
HETATM    1  C5  UNL     1     -14.612  13.197  -5.113  1.00  0.00     0.000 C 
ENDROOT
BRANCH   1   2
HETATM    2  C4  UNL     1     -15.635  12.898  -6.212  1.00  0.00     0.000 C 
BRANCH   2   3
HETATM    3  C3  UNL     1     -17.025  13.469  -5.919  1.00  0.00    -0.000 C 
BRANCH   3   4
HETATM    4  C2  UNL     1     -18.135  12.417  -5.945  1.00  0.00    -0.005 C 
HETATM    5  C1  UNL     1     -17.677  11.112  -5.312  1.00  0.00     0.005 C 
ENDBRANCH   3   4
ENDBRANCH   2   3
ENDBRANCH   1   2
BRANCH   1   6
HETATM    6  C6  UNL     1     -15.247  13.698  -3.811  1.00  0.00     0.002 C 
BRANCH   6   7
HETATM    7  C7  UNL     1     -14.765  12.943  -2.569  1.00  0.00     0.026 C 
BRANCH   7   8
HETATM    8  C8  UNL     1     -14.977  11.436  -2.680  1.00  0.00     0.164 C 
BRANCH   8   9
HETATM    9  O1  UNL     1     -16.101  11.020  -1.918  1.00  0.00    -0.401 OA
HETATM   10  H18 UNL     1     -16.554  10.320  -2.418  1.00  0.00     0.209 HD
ENDBRANCH   8   9
ENDBRANCH   7   8
ENDBRANCH   6   7
ENDBRANCH   1   6
TORSDOF 7
ENDMDL
