MODEL 1
REMARK VINA RESULT:      -6.2      0.000      0.000
REMARK  1 active torsions:
REMARK  status: ('A' for Active; 'I' for Inactive)
REMARK    1  A    between atoms: C4_4  and  C7_7 
ROOT
HETATM    1  C1  UNL     1     -13.897   8.915   3.516  1.00  0.00     0.000 A 
HETATM    2  C2  UNL     1     -13.397   8.346   4.684  1.00  0.00     0.001 A 
HETATM    3  C3  UNL     1     -14.012   7.216   5.230  1.00  0.00     0.012 A 
HETATM    4  C4  UNL     1     -15.136   6.636   4.620  1.00  0.00    -0.026 A 
HETATM    5  C5  UNL     1     -15.625   7.227   3.442  1.00  0.00     0.012 A 
HETATM    6  C6  UNL     1     -15.011   8.357   2.894  1.00  0.00     0.001 A 
ENDROOT
BRANCH   4   7
HETATM    7  C7  UNL     1     -15.784   5.446   5.196  1.00  0.00    -0.026 A 
HETATM    8  C8  UNL     1     -16.505   5.526   6.400  1.00  0.00     0.012 A 
HETATM    9  C9  UNL     1     -17.120   4.397   6.948  1.00  0.00     0.001 A 
HETATM   10  C10 UNL     1     -17.024   3.168   6.301  1.00  0.00     0.000 A 
HETATM   11  C11 UNL     1     -16.315   3.066   5.107  1.00  0.00     0.001 A 
HETATM   12  C12 UNL     1     -15.699   4.196   4.561  1.00  0.00     0.012 A 
ENDBRANCH   4   7
TORSDOF 1
ENDMDL
MODEL 2
REMARK VINA RESULT:      -6.2      0.073      4.951
REMARK  1 active torsions:
REMARK  status: ('A' for Active; 'I' for Inactive)
REMARK    1  A    between atoms: C4_4  and  C7_7 
ROOT
HETATM    1  C1  UNL     1     -17.047   3.249   6.301  1.00  0.00     0.000 A 
HETATM    2  C2  UNL     1     -16.373   3.147   5.087  1.00  0.00     0.001 A 
HETATM    3  C3  UNL     1     -15.747   4.270   4.539  1.00  0.00     0.012 A 
HETATM    4  C4  UNL     1     -15.784   5.513   5.193  1.00  0.00    -0.026 A 
HETATM    5  C5  UNL     1     -16.471   5.593   6.417  1.00  0.00     0.012 A 
HETATM    6  C6  UNL     1     -17.098   4.471   6.967  1.00  0.00     0.001 A 
ENDROOT
BRANCH   4   7
HETATM    7  C7  UNL     1     -15.125   6.696   4.615  1.00  0.00    -0.026 A 
HETATM    8  C8  UNL     1     -13.987   7.258   5.218  1.00  0.00     0.012 A 
HETATM    9  C9  UNL     1     -13.361   8.381   4.671  1.00  0.00     0.001 A 
HETATM   10  C10 UNL     1     -13.862   8.961   3.508  1.00  0.00     0.000 A 
HETATM   11  C11 UNL     1     -14.988   8.419   2.893  1.00  0.00     0.001 A 
HETATM   12  C12 UNL     1     -15.614   7.297   3.444  1.00  0.00     0.012 A 
ENDBRANCH   4   7
TORSDOF 1
ENDMDL
MODEL 3
REMARK VINA RESULT:      -6.2      0.062      4.945
REMARK  1 active torsions:
REMARK  status: ('A' for Active; 'I' for Inactive)
REMARK    1  A    between atoms: C4_4  and  C7_7 
ROOT
HETATM    1  C1  UNL     1     -17.042   3.110   6.307  1.00  0.00     0.000 A 
HETATM    2  C2  UNL     1     -17.134   4.334   6.963  1.00  0.00     0.001 A 
HETATM    3  C3  UNL     1     -16.517   5.465   6.423  1.00  0.00     0.012 A 
HETATM    4  C4  UNL     1     -15.797   5.394   5.219  1.00  0.00    -0.026 A 
HETATM    5  C5  UNL     1     -15.715   4.148   4.574  1.00  0.00     0.012 A 
HETATM    6  C6  UNL     1     -16.332   3.015   5.112  1.00  0.00     0.001 A 
ENDROOT
BRANCH   4   7
HETATM    7  C7  UNL     1     -15.146   6.586   4.651  1.00  0.00    -0.026 A 
HETATM    8  C8  UNL     1     -15.632   7.186   3.477  1.00  0.00     0.012 A 
HETATM    9  C9  UNL     1     -15.015   8.317   2.936  1.00  0.00     0.001 A 
HETATM   10  C10 UNL     1     -13.901   8.869   3.563  1.00  0.00     0.000 A 
HETATM   11  C11 UNL     1     -13.403   8.292   4.729  1.00  0.00     0.001 A 
HETATM   12  C12 UNL     1     -14.021   7.159   5.266  1.00  0.00     0.012 A 
ENDBRANCH   4   7
TORSDOF 1
ENDMDL
MODEL 4
REMARK VINA RESULT:      -6.0      1.270      1.572
REMARK  1 active torsions:
REMARK  status: ('A' for Active; 'I' for Inactive)
REMARK    1  A    between atoms: C4_4  and  C7_7 
ROOT
HETATM    1  C1  UNL     1     -13.318   7.585   2.351  1.00  0.00     0.000 A 
HETATM    2  C2  UNL     1     -14.504   8.091   2.874  1.00  0.00     0.001 A 
HETATM    3  C3  UNL     1     -15.287   7.303   3.722  1.00  0.00     0.012 A 
HETATM    4  C4  UNL     1     -14.899   5.996   4.061  1.00  0.00    -0.026 A 
HETATM    5  C5  UNL     1     -13.698   5.505   3.521  1.00  0.00     0.012 A 
HETATM    6  C6  UNL     1     -12.913   6.292   2.674  1.00  0.00     0.001 A 
ENDROOT
BRANCH   4   7
HETATM    7  C7  UNL     1     -15.725   5.166   4.954  1.00  0.00    -0.026 A 
HETATM    8  C8  UNL     1     -16.301   5.705   6.117  1.00  0.00     0.012 A 
HETATM    9  C9  UNL     1     -17.085   4.918   6.965  1.00  0.00     0.001 A 
HETATM   10  C10 UNL     1     -17.306   3.577   6.663  1.00  0.00     0.000 A 
HETATM   11  C11 UNL     1     -16.746   3.023   5.516  1.00  0.00     0.001 A 
HETATM   12  C12 UNL     1     -15.961   3.811   4.670  1.00  0.00     0.012 A 
ENDBRANCH   4   7
TORSDOF 1
ENDMDL
MODEL 5
REMARK VINA RESULT:      -5.9      1.565      2.102
REMARK  1 active torsions:
REMARK  status: ('A' for Active; 'I' for Inactive)
REMARK    1  A    between atoms: C4_4  and  C7_7 
ROOT
HETATM    1  C1  UNL     1     -12.873   7.363   2.082  1.00  0.00     0.000 A 
HETATM    2  C2  UNL     1     -12.672   5.999   2.272  1.00  0.00     0.001 A 
HETATM    3  C3  UNL     1     -13.498   5.286   3.145  1.00  0.00     0.012 A 
HETATM    4  C4  UNL     1     -14.538   5.923   3.843  1.00  0.00    -0.026 A 
HETATM    5  C5  UNL     1     -14.722   7.301   3.636  1.00  0.00     0.012 A 
HETATM    6  C6  UNL     1     -13.897   8.016   2.763  1.00  0.00     0.001 A 
ENDROOT
BRANCH   4   7
HETATM    7  C7  UNL     1     -15.407   5.171   4.763  1.00  0.00    -0.026 A 
HETATM    8  C8  UNL     1     -15.700   3.815   4.537  1.00  0.00     0.012 A 
HETATM    9  C9  UNL     1     -16.525   3.100   5.410  1.00  0.00     0.001 A 
HETATM   10  C10 UNL     1     -17.071   3.731   6.525  1.00  0.00     0.000 A 
HETATM   11  C11 UNL     1     -16.794   5.073   6.768  1.00  0.00     0.001 A 
HETATM   12  C12 UNL     1     -15.970   5.786   5.893  1.00  0.00     0.012 A 
ENDBRANCH   4   7
TORSDOF 1
ENDMDL
MODEL 6
REMARK VINA RESULT:      -5.7      1.613      2.742
REMARK  1 active torsions:
REMARK  status: ('A' for Active; 'I' for Inactive)
REMARK    1  A    between atoms: C4_4  and  C7_7 
ROOT
HETATM    1  C1  UNL     1     -13.926   6.909   3.504  1.00  0.00     0.000 A 
HETATM    2  C2  UNL     1     -13.319   5.684   3.243  1.00  0.00     0.001 A 
HETATM    3  C3  UNL     1     -13.955   4.495   3.611  1.00  0.00     0.012 A 
HETATM    4  C4  UNL     1     -15.209   4.510   4.245  1.00  0.00    -0.026 A 
HETATM    5  C5  UNL     1     -15.804   5.758   4.499  1.00  0.00     0.012 A 
HETATM    6  C6  UNL     1     -15.169   6.948   4.131  1.00  0.00     0.001 A 
ENDROOT
BRANCH   4   7
HETATM    7  C7  UNL     1     -15.879   3.258   4.632  1.00  0.00    -0.026 A 
HETATM    8  C8  UNL     1     -15.323   2.009   4.307  1.00  0.00     0.012 A 
HETATM    9  C9  UNL     1     -15.958   0.819   4.674  1.00  0.00     0.001 A 
HETATM   10  C10 UNL     1     -17.161   0.859   5.374  1.00  0.00     0.000 A 
HETATM   11  C11 UNL     1     -17.729   2.085   5.708  1.00  0.00     0.001 A 
HETATM   12  C12 UNL     1     -17.093   3.274   5.338  1.00  0.00     0.012 A 
ENDBRANCH   4   7
TORSDOF 1
ENDMDL
MODEL 7
REMARK VINA RESULT:      -5.7      1.077      5.093
REMARK  1 active torsions:
REMARK  status: ('A' for Active; 'I' for Inactive)
REMARK    1  A    between atoms: C4_4  and  C7_7 
ROOT
HETATM    1  C1  UNL     1     -15.742   3.259   4.710  1.00  0.00     0.000 A 
HETATM    2  C2  UNL     1     -16.384   4.303   5.370  1.00  0.00     0.001 A 
HETATM    3  C3  UNL     1     -15.939   5.617   5.201  1.00  0.00     0.012 A 
HETATM    4  C4  UNL     1     -14.845   5.910   4.370  1.00  0.00    -0.026 A 
HETATM    5  C5  UNL     1     -14.211   4.841   3.713  1.00  0.00     0.012 A 
HETATM    6  C6  UNL     1     -14.655   3.526   3.881  1.00  0.00     0.001 A 
ENDROOT
BRANCH   4   7
HETATM    7  C7  UNL     1     -14.376   7.294   4.192  1.00  0.00    -0.026 A 
HETATM    8  C8  UNL     1     -14.499   7.947   2.954  1.00  0.00     0.012 A 
HETATM    9  C9  UNL     1     -14.054   9.261   2.784  1.00  0.00     0.001 A 
HETATM   10  C10 UNL     1     -13.479   9.945   3.851  1.00  0.00     0.000 A 
HETATM   11  C11 UNL     1     -13.349   9.318   5.088  1.00  0.00     0.001 A 
HETATM   12  C12 UNL     1     -13.793   8.003   5.255  1.00  0.00     0.012 A 
ENDBRANCH   4   7
TORSDOF 1
ENDMDL
MODEL 8
REMARK VINA RESULT:      -5.7      2.247      4.420
REMARK  1 active torsions:
REMARK  status: ('A' for Active; 'I' for Inactive)
REMARK    1  A    between atoms: C4_4  and  C7_7 
ROOT
HETATM    1  C1  UNL     1     -16.574   5.724   6.274  1.00  0.00     0.000 A 
HETATM    2  C2  UNL     1     -16.994   4.587   6.958  1.00  0.00     0.001 A 
HETATM    3  C3  UNL     1     -16.705   3.318   6.449  1.00  0.00     0.012 A 
HETATM    4  C4  UNL     1     -15.993   3.163   5.249  1.00  0.00    -0.026 A 
HETATM    5  C5  UNL     1     -15.579   4.324   4.574  1.00  0.00     0.012 A 
HETATM    6  C6  UNL     1     -15.867   5.594   5.081  1.00  0.00     0.001 A 
ENDROOT
BRANCH   4   7
HETATM    7  C7  UNL     1     -15.690   1.826   4.713  1.00  0.00    -0.026 A 
HETATM    8  C8  UNL     1     -16.195   0.667   5.328  1.00  0.00     0.012 A 
HETATM    9  C9  UNL     1     -15.908  -0.603   4.821  1.00  0.00     0.001 A 
HETATM   10  C10 UNL     1     -15.110  -0.736   3.688  1.00  0.00     0.000 A 
HETATM   11  C11 UNL     1     -14.599   0.398   3.062  1.00  0.00     0.001 A 
HETATM   12  C12 UNL     1     -14.886   1.667   3.572  1.00  0.00     0.012 A 
ENDBRANCH   4   7
TORSDOF 1
ENDMDL
MODEL 9
REMARK VINA RESULT:      -5.7      1.247      2.175
REMARK  1 active torsions:
REMARK  status: ('A' for Active; 'I' for Inactive)
REMARK    1  A    between atoms: C4_4  and  C7_7 
ROOT
HETATM    1  C1  UNL     1     -13.311  10.099   3.643  1.00  0.00     0.000 A 
HETATM    2  C2  UNL     1     -13.263   9.507   4.902  1.00  0.00     0.001 A 
HETATM    3  C3  UNL     1     -13.707   8.193   5.075  1.00  0.00     0.012 A 
HETATM    4  C4  UNL     1     -14.206   7.448   3.994  1.00  0.00    -0.026 A 
HETATM    5  C5  UNL     1     -14.246   8.065   2.732  1.00  0.00     0.012 A 
HETATM    6  C6  UNL     1     -13.802   9.379   2.557  1.00  0.00     0.001 A 
ENDROOT
BRANCH   4   7
HETATM    7  C7  UNL     1     -14.675   6.065   4.177  1.00  0.00    -0.026 A 
HETATM    8  C8  UNL     1     -13.978   4.984   3.610  1.00  0.00     0.012 A 
HETATM    9  C9  UNL     1     -14.422   3.669   3.783  1.00  0.00     0.001 A 
HETATM   10  C10 UNL     1     -15.570   3.414   4.528  1.00  0.00     0.000 A 
HETATM   11  C11 UNL     1     -16.275   4.470   5.099  1.00  0.00     0.001 A 
HETATM   12  C12 UNL     1     -15.831   5.784   4.923  1.00  0.00     0.012 A 
ENDBRANCH   4   7
TORSDOF 1
ENDMDL
