MODEL 1
REMARK VINA RESULT:      -5.5      0.000      0.000
REMARK  4 active torsions:
REMARK  status: ('A' for Active; 'I' for Inactive)
REMARK    1  A    between atoms: C2_2  and  O2_4 
REMARK    2  A    between atoms: O2_4  and  C3_5 
REMARK    3  A    between atoms: C8_10  and  C9_11 
REMARK    4  A    between atoms: C9_11  and  O4_13 
ROOT
HETATM    1  C3  UNL     1     -15.801  12.599  -4.665  1.00  0.00     0.096 A 
HETATM    2  C4  UNL     1     -16.271  13.649  -5.459  1.00  0.00     0.038 A 
HETATM    3  C5  UNL     1     -17.464  13.501  -6.164  1.00  0.00     0.003 A 
HETATM    4  C6  UNL     1     -18.176  12.304  -6.082  1.00  0.00     0.001 A 
HETATM    5  C7  UNL     1     -17.693  11.249  -5.302  1.00  0.00     0.021 A 
HETATM    6  C8  UNL     1     -16.492  11.381  -4.587  1.00  0.00     0.071 A 
ENDROOT
BRANCH   1   7
HETATM    7  O2  UNL     1     -14.583  12.803  -4.008  1.00  0.00    -0.278 OA
BRANCH   7   8
HETATM    8  C2  UNL     1     -14.748  13.280  -2.713  1.00  0.00     0.260 C 
HETATM    9  C1  UNL     1     -14.785  14.779  -2.749  1.00  0.00     0.126 C 
HETATM   10  O1  UNL     1     -14.869  12.609  -1.695  1.00  0.00    -0.265 OA
ENDBRANCH   7   8
ENDBRANCH   1   7
BRANCH   6  11
HETATM   11  C9  UNL     1     -15.959  10.254  -3.778  1.00  0.00     0.179 C 
HETATM   12  O3  UNL     1     -15.116   9.442  -4.115  1.00  0.00    -0.646 OA
BRANCH  11  13
HETATM   13  O4  UNL     1     -16.518  10.185  -2.555  1.00  0.00    -0.773 OA
HETATM   14  H8  UNL     1     -15.854  10.608  -1.971  1.00  0.00     0.167 HD
ENDBRANCH  11  13
ENDBRANCH   6  11
TORSDOF 4
ENDMDL
MODEL 2
REMARK VINA RESULT:      -5.3      6.122      8.250
REMARK  4 active torsions:
REMARK  status: ('A' for Active; 'I' for Inactive)
REMARK    1  A    between atoms: C2_2  and  O2_4 
REMARK    2  A    between atoms: O2_4  and  C3_5 
REMARK    3  A    between atoms: C8_10  and  C9_11 
REMARK    4  A    between atoms: C9_11  and  O4_13 
ROOT
HETATM    1  C3  UNL     1     -12.369   9.574   1.884  1.00  0.00     0.096 A 
HETATM    2  C4  UNL     1     -12.736   8.236   1.711  1.00  0.00     0.038 A 
HETATM    3  C5  UNL     1     -13.633   7.646   2.600  1.00  0.00     0.003 A 
HETATM    4  C6  UNL     1     -14.150   8.388   3.662  1.00  0.00     0.001 A 
HETATM    5  C7  UNL     1     -13.766   9.720   3.842  1.00  0.00     0.021 A 
HETATM    6  C8  UNL     1     -12.863  10.330   2.957  1.00  0.00     0.071 A 
ENDROOT
BRANCH   1   7
HETATM    7  O2  UNL     1     -11.443  10.095   0.974  1.00  0.00    -0.278 OA
BRANCH   7   8
HETATM    8  C2  UNL     1     -12.047  10.612  -0.166  1.00  0.00     0.260 C 
HETATM    9  C1  UNL     1     -11.255  10.193  -1.368  1.00  0.00     0.126 C 
HETATM   10  O1  UNL     1     -13.071  11.283  -0.211  1.00  0.00    -0.265 OA
ENDBRANCH   7   8
ENDBRANCH   1   7
BRANCH   6  11
HETATM   11  C9  UNL     1     -12.428  11.737   3.160  1.00  0.00     0.179 C 
HETATM   12  O3  UNL     1     -13.127  12.733   3.132  1.00  0.00    -0.646 OA
BRANCH  11  13
HETATM   13  O4  UNL     1     -11.105  11.840   3.391  1.00  0.00    -0.773 OA
HETATM   14  H8  UNL     1     -10.753  12.229   2.563  1.00  0.00     0.167 HD
ENDBRANCH  11  13
ENDBRANCH   6  11
TORSDOF 4
ENDMDL
MODEL 3
REMARK VINA RESULT:      -5.2     11.445     13.157
REMARK  4 active torsions:
REMARK  status: ('A' for Active; 'I' for Inactive)
REMARK    1  A    between atoms: C2_2  and  O2_4 
REMARK    2  A    between atoms: O2_4  and  C3_5 
REMARK    3  A    between atoms: C8_10  and  C9_11 
REMARK    4  A    between atoms: C9_11  and  O4_13 
ROOT
HETATM    1  C3  UNL     1     -15.967   3.548   4.976  1.00  0.00     0.096 A 
HETATM    2  C4  UNL     1     -16.351   4.855   5.295  1.00  0.00     0.038 A 
HETATM    3  C5  UNL     1     -15.644   5.931   4.764  1.00  0.00     0.003 A 
HETATM    4  C6  UNL     1     -14.551   5.702   3.929  1.00  0.00     0.001 A 
HETATM    5  C7  UNL     1     -14.158   4.395   3.627  1.00  0.00     0.021 A 
HETATM    6  C8  UNL     1     -14.858   3.298   4.153  1.00  0.00     0.071 A 
ENDROOT
BRANCH   1   7
HETATM    7  O2  UNL     1     -16.701   2.514   5.565  1.00  0.00    -0.278 OA
BRANCH   7   8
HETATM    8  C2  UNL     1     -16.447   2.388   6.926  1.00  0.00     0.260 C 
HETATM    9  C1  UNL     1     -17.706   2.680   7.685  1.00  0.00     0.126 C 
HETATM   10  O1  UNL     1     -15.384   2.069   7.446  1.00  0.00    -0.265 OA
ENDBRANCH   7   8
ENDBRANCH   1   7
BRANCH   6  11
HETATM   11  C9  UNL     1     -14.428   1.906   3.860  1.00  0.00     0.179 C 
HETATM   12  O3  UNL     1     -14.539   1.309   2.805  1.00  0.00    -0.646 OA
BRANCH  11  13
HETATM   13  O4  UNL     1     -13.867   1.304   4.926  1.00  0.00    -0.773 OA
HETATM   14  H8  UNL     1     -14.483   1.509   5.661  1.00  0.00     0.167 HD
ENDBRANCH  11  13
ENDBRANCH   6  11
TORSDOF 4
ENDMDL
MODEL 4
REMARK VINA RESULT:      -5.2     12.597     14.388
REMARK  4 active torsions:
REMARK  status: ('A' for Active; 'I' for Inactive)
REMARK    1  A    between atoms: C2_2  and  O2_4 
REMARK    2  A    between atoms: O2_4  and  C3_5 
REMARK    3  A    between atoms: C8_10  and  C9_11 
REMARK    4  A    between atoms: C9_11  and  O4_13 
ROOT
HETATM    1  C3  UNL     1     -16.061   2.799   5.824  1.00  0.00     0.096 A 
HETATM    2  C4  UNL     1     -15.616   3.564   4.740  1.00  0.00     0.038 A 
HETATM    3  C5  UNL     1     -15.804   4.945   4.748  1.00  0.00     0.003 A 
HETATM    4  C6  UNL     1     -16.444   5.555   5.828  1.00  0.00     0.001 A 
HETATM    5  C7  UNL     1     -16.904   4.784   6.900  1.00  0.00     0.021 A 
HETATM    6  C8  UNL     1     -16.724   3.392   6.908  1.00  0.00     0.071 A 
ENDROOT
BRANCH   1   7
HETATM    7  O2  UNL     1     -15.868   1.416   5.739  1.00  0.00    -0.278 OA
BRANCH   7   8
HETATM    8  C2  UNL     1     -16.719   0.814   4.820  1.00  0.00     0.260 C 
HETATM    9  C1  UNL     1     -15.906  -0.033   3.888  1.00  0.00     0.126 C 
HETATM   10  O1  UNL     1     -17.938   0.922   4.771  1.00  0.00    -0.265 OA
ENDBRANCH   7   8
ENDBRANCH   1   7
BRANCH   6  11
HETATM   11  C9  UNL     1     -17.236   2.564   8.031  1.00  0.00     0.179 C 
HETATM   12  O3  UNL     1     -18.376   2.527   8.456  1.00  0.00    -0.646 OA
BRANCH  11  13
HETATM   13  O4  UNL     1     -16.277   1.802   8.590  1.00  0.00    -0.773 OA
HETATM   14  H8  UNL     1     -15.849   2.402   9.236  1.00  0.00     0.167 HD
ENDBRANCH  11  13
ENDBRANCH   6  11
TORSDOF 4
ENDMDL
MODEL 5
REMARK VINA RESULT:      -5.2      8.559     10.175
REMARK  4 active torsions:
REMARK  status: ('A' for Active; 'I' for Inactive)
REMARK    1  A    between atoms: C2_2  and  O2_4 
REMARK    2  A    between atoms: O2_4  and  C3_5 
REMARK    3  A    between atoms: C8_10  and  C9_11 
REMARK    4  A    between atoms: C9_11  and  O4_13 
ROOT
HETATM    1  C3  UNL     1     -13.968   6.769   4.188  1.00  0.00     0.096 A 
HETATM    2  C4  UNL     1     -15.078   6.810   5.038  1.00  0.00     0.038 A 
HETATM    3  C5  UNL     1     -15.846   5.662   5.226  1.00  0.00     0.003 A 
HETATM    4  C6  UNL     1     -15.512   4.484   4.558  1.00  0.00     0.001 A 
HETATM    5  C7  UNL     1     -14.413   4.453   3.694  1.00  0.00     0.021 A 
HETATM    6  C8  UNL     1     -13.629   5.599   3.493  1.00  0.00     0.071 A 
ENDROOT
BRANCH   1   7
HETATM    7  O2  UNL     1     -13.259   7.963   4.022  1.00  0.00    -0.278 OA
BRANCH   7   8
HETATM    8  C2  UNL     1     -13.998   8.935   3.358  1.00  0.00     0.260 C 
HETATM    9  C1  UNL     1     -13.808  10.249   4.054  1.00  0.00     0.126 C 
HETATM   10  O1  UNL     1     -14.682   8.776   2.354  1.00  0.00    -0.265 OA
ENDBRANCH   7   8
ENDBRANCH   1   7
BRANCH   6  11
HETATM   11  C9  UNL     1     -12.477   5.580   2.554  1.00  0.00     0.179 C 
HETATM   12  O3  UNL     1     -12.520   5.513   1.339  1.00  0.00    -0.646 OA
BRANCH  11  13
HETATM   13  O4  UNL     1     -11.291   5.643   3.190  1.00  0.00    -0.773 OA
HETATM   14  H8  UNL     1     -11.399   5.026   3.944  1.00  0.00     0.167 HD
ENDBRANCH  11  13
ENDBRANCH   6  11
TORSDOF 4
ENDMDL
MODEL 6
REMARK VINA RESULT:      -5.1      2.307      3.771
REMARK  4 active torsions:
REMARK  status: ('A' for Active; 'I' for Inactive)
REMARK    1  A    between atoms: C2_2  and  O2_4 
REMARK    2  A    between atoms: O2_4  and  C3_5 
REMARK    3  A    between atoms: C8_10  and  C9_11 
REMARK    4  A    between atoms: C9_11  and  O4_13 
ROOT
HETATM    1  C3  UNL     1     -15.880  13.616  -5.168  1.00  0.00     0.096 A 
HETATM    2  C4  UNL     1     -16.150  12.329  -4.690  1.00  0.00     0.038 A 
HETATM    3  C5  UNL     1     -17.278  11.648  -5.143  1.00  0.00     0.003 A 
HETATM    4  C6  UNL     1     -18.137  12.255  -6.058  1.00  0.00     0.001 A 
HETATM    5  C7  UNL     1     -17.875  13.548  -6.519  1.00  0.00     0.021 A 
HETATM    6  C8  UNL     1     -16.743  14.250  -6.074  1.00  0.00     0.071 A 
ENDROOT
BRANCH   1   7
HETATM    7  O2  UNL     1     -14.748  14.255  -4.651  1.00  0.00    -0.278 OA
BRANCH   7   8
HETATM    8  C2  UNL     1     -14.911  14.638  -3.325  1.00  0.00     0.260 C 
HETATM    9  C1  UNL     1     -13.884  13.937  -2.488  1.00  0.00     0.126 C 
HETATM   10  O1  UNL     1     -15.734  15.432  -2.888  1.00  0.00    -0.265 OA
ENDBRANCH   7   8
ENDBRANCH   1   7
BRANCH   6  11
HETATM   11  C9  UNL     1     -16.474  15.636  -6.537  1.00  0.00     0.179 C 
HETATM   12  O3  UNL     1     -16.204  15.993  -7.670  1.00  0.00    -0.646 OA
BRANCH  11  13
HETATM   13  O4  UNL     1     -16.552  16.538  -5.540  1.00  0.00    -0.773 OA
HETATM   14  H8  UNL     1     -15.626  16.624  -5.230  1.00  0.00     0.167 HD
ENDBRANCH  11  13
ENDBRANCH   6  11
TORSDOF 4
ENDMDL
MODEL 7
REMARK VINA RESULT:      -4.9     12.214     13.703
REMARK  4 active torsions:
REMARK  status: ('A' for Active; 'I' for Inactive)
REMARK    1  A    between atoms: C2_2  and  O2_4 
REMARK    2  A    between atoms: O2_4  and  C3_5 
REMARK    3  A    between atoms: C8_10  and  C9_11 
REMARK    4  A    between atoms: C9_11  and  O4_13 
ROOT
HETATM    1  C3  UNL     1     -15.419   2.284   4.235  1.00  0.00     0.096 A 
HETATM    2  C4  UNL     1     -14.654   3.391   3.855  1.00  0.00     0.038 A 
HETATM    3  C5  UNL     1     -15.018   4.663   4.292  1.00  0.00     0.003 A 
HETATM    4  C6  UNL     1     -16.147   4.827   5.094  1.00  0.00     0.001 A 
HETATM    5  C7  UNL     1     -16.920   3.720   5.456  1.00  0.00     0.021 A 
HETATM    6  C8  UNL     1     -16.569   2.431   5.024  1.00  0.00     0.071 A 
ENDROOT
BRANCH   1   7
HETATM    7  O2  UNL     1     -15.015   1.040   3.738  1.00  0.00    -0.278 OA
BRANCH   7   8
HETATM    8  C2  UNL     1     -13.644   0.841   3.847  1.00  0.00     0.260 C 
HETATM    9  C1  UNL     1     -13.320   0.458   5.260  1.00  0.00     0.126 C 
HETATM   10  O1  UNL     1     -12.817   0.935   2.948  1.00  0.00    -0.265 OA
ENDBRANCH   7   8
ENDBRANCH   1   7
BRANCH   6  11
HETATM   11  C9  UNL     1     -17.402   1.254   5.381  1.00  0.00     0.179 C 
HETATM   12  O3  UNL     1     -18.572   1.069   5.101  1.00  0.00    -0.646 OA
BRANCH  11  13
HETATM   13  O4  UNL     1     -16.721   0.336   6.095  1.00  0.00    -0.773 OA
HETATM   14  H8  UNL     1     -17.180   0.328   6.962  1.00  0.00     0.167 HD
ENDBRANCH  11  13
ENDBRANCH   6  11
TORSDOF 4
ENDMDL
MODEL 8
REMARK VINA RESULT:      -4.9      1.554      2.153
REMARK  4 active torsions:
REMARK  status: ('A' for Active; 'I' for Inactive)
REMARK    1  A    between atoms: C2_2  and  O2_4 
REMARK    2  A    between atoms: O2_4  and  C3_5 
REMARK    3  A    between atoms: C8_10  and  C9_11 
REMARK    4  A    between atoms: C9_11  and  O4_13 
ROOT
HETATM    1  C3  UNL     1     -15.957  13.124  -4.716  1.00  0.00     0.096 A 
HETATM    2  C4  UNL     1     -16.889  13.310  -5.743  1.00  0.00     0.038 A 
HETATM    3  C5  UNL     1     -17.784  12.288  -6.055  1.00  0.00     0.003 A 
HETATM    4  C6  UNL     1     -17.739  11.084  -5.352  1.00  0.00     0.001 A 
HETATM    5  C7  UNL     1     -16.793  10.896  -4.339  1.00  0.00     0.021 A 
HETATM    6  C8  UNL     1     -15.884  11.913  -4.012  1.00  0.00     0.071 A 
ENDROOT
BRANCH   1   7
HETATM    7  O2  UNL     1     -15.070  14.178  -4.474  1.00  0.00    -0.278 OA
BRANCH   7   8
HETATM    8  C2  UNL     1     -15.723  15.372  -4.191  1.00  0.00     0.260 C 
HETATM    9  C1  UNL     1     -15.548  15.688  -2.736  1.00  0.00     0.126 C 
HETATM   10  O1  UNL     1     -16.331  16.080  -4.985  1.00  0.00    -0.265 OA
ENDBRANCH   7   8
ENDBRANCH   1   7
BRANCH   6  11
HETATM   11  C9  UNL     1     -14.858  11.709  -2.956  1.00  0.00     0.179 C 
HETATM   12  O3  UNL     1     -13.839  11.049  -3.040  1.00  0.00    -0.646 OA
BRANCH  11  13
HETATM   13  O4  UNL     1     -15.160  12.351  -1.811  1.00  0.00    -0.773 OA
HETATM   14  H8  UNL     1     -14.329  12.306  -1.293  1.00  0.00     0.167 HD
ENDBRANCH  11  13
ENDBRANCH   6  11
TORSDOF 4
ENDMDL
MODEL 9
REMARK VINA RESULT:      -4.9     12.310     13.823
REMARK  4 active torsions:
REMARK  status: ('A' for Active; 'I' for Inactive)
REMARK    1  A    between atoms: C2_2  and  O2_4 
REMARK    2  A    between atoms: O2_4  and  C3_5 
REMARK    3  A    between atoms: C8_10  and  C9_11 
REMARK    4  A    between atoms: C9_11  and  O4_13 
ROOT
HETATM    1  C3  UNL     1     -16.165   2.582   4.680  1.00  0.00     0.096 A 
HETATM    2  C4  UNL     1     -14.876   2.692   4.146  1.00  0.00     0.038 A 
HETATM    3  C5  UNL     1     -14.173   1.540   3.799  1.00  0.00     0.003 A 
HETATM    4  C6  UNL     1     -14.751   0.285   3.997  1.00  0.00     0.001 A 
HETATM    5  C7  UNL     1     -16.030   0.179   4.549  1.00  0.00     0.021 A 
HETATM    6  C8  UNL     1     -16.753   1.329   4.905  1.00  0.00     0.071 A 
ENDROOT
BRANCH   1   7
HETATM    7  O2  UNL     1     -16.803   3.775   5.034  1.00  0.00    -0.278 OA
BRANCH   7   8
HETATM    8  C2  UNL     1     -16.281   4.336   6.194  1.00  0.00     0.260 C 
HETATM    9  C1  UNL     1     -15.945   5.772   5.930  1.00  0.00     0.126 C 
HETATM   10  O1  UNL     1     -16.132   3.777   7.274  1.00  0.00    -0.265 OA
ENDBRANCH   7   8
ENDBRANCH   1   7
BRANCH   6  11
HETATM   11  C9  UNL     1     -18.102   1.222   5.519  1.00  0.00     0.179 C 
HETATM   12  O3  UNL     1     -19.135   0.884   4.970  1.00  0.00    -0.646 OA
BRANCH  11  13
HETATM   13  O4  UNL     1     -18.103   1.553   6.824  1.00  0.00    -0.773 OA
HETATM   14  H8  UNL     1     -17.844   0.722   7.276  1.00  0.00     0.167 HD
ENDBRANCH  11  13
ENDBRANCH   6  11
TORSDOF 4
ENDMDL
