MODEL 1
REMARK VINA RESULT:      -2.9      0.000      0.000
REMARK  1 active torsions:
REMARK  status: ('A' for Active; 'I' for Inactive)
REMARK    1  A    between atoms: C2_2  and  O1_5 
ROOT
HETATM    1  C1  UNL     1     -17.797   2.845   7.868  1.00  0.00     0.045 C 
HETATM    2  C2  UNL     1     -16.770   3.423   6.895  1.00  0.00     0.047 C 
HETATM    3  C3  UNL     1     -16.886   4.945   6.819  1.00  0.00     0.045 C 
HETATM    4  C4  UNL     1     -16.933   2.802   5.510  1.00  0.00     0.045 C 
ENDROOT
BRANCH   2   5
HETATM    5  O1  UNL     1     -15.463   3.090   7.365  1.00  0.00    -0.391 OA
HETATM    6  H10 UNL     1     -15.534   2.283   7.903  1.00  0.00     0.210 HD
ENDBRANCH   2   5
TORSDOF 1
ENDMDL
MODEL 2
REMARK VINA RESULT:      -2.9      9.319      9.864
REMARK  1 active torsions:
REMARK  status: ('A' for Active; 'I' for Inactive)
REMARK    1  A    between atoms: C2_2  and  O1_5 
ROOT
HETATM    1  C1  UNL     1     -13.349  10.927   3.526  1.00  0.00     0.045 C 
HETATM    2  C2  UNL     1     -11.987  10.929   2.833  1.00  0.00     0.047 C 
HETATM    3  C3  UNL     1     -12.101  11.462   1.406  1.00  0.00     0.045 C 
HETATM    4  C4  UNL     1     -11.381   9.526   2.837  1.00  0.00     0.045 C 
ENDROOT
BRANCH   2   5
HETATM    5  O1  UNL     1     -11.105  11.779   3.567  1.00  0.00    -0.391 OA
HETATM    6  H10 UNL     1     -11.500  12.668   3.595  1.00  0.00     0.210 HD
ENDBRANCH   2   5
TORSDOF 1
ENDMDL
MODEL 3
REMARK VINA RESULT:      -2.9     12.781     13.151
REMARK  1 active torsions:
REMARK  status: ('A' for Active; 'I' for Inactive)
REMARK    1  A    between atoms: C2_2  and  O1_5 
ROOT
HETATM    1  C1  UNL     1     -14.979   9.731  -4.298  1.00  0.00     0.045 C 
HETATM    2  C2  UNL     1     -16.011  10.744  -3.803  1.00  0.00     0.047 C 
HETATM    3  C3  UNL     1     -17.162  10.881  -4.799  1.00  0.00     0.045 C 
HETATM    4  C4  UNL     1     -15.354  12.100  -3.551  1.00  0.00     0.045 C 
ENDROOT
BRANCH   2   5
HETATM    5  O1  UNL     1     -16.539  10.284  -2.559  1.00  0.00    -0.391 OA
HETATM    6  H10 UNL     1     -17.182  10.942  -2.244  1.00  0.00     0.210 HD
ENDBRANCH   2   5
TORSDOF 1
ENDMDL
MODEL 4
REMARK VINA RESULT:      -2.9     12.805     13.178
REMARK  1 active torsions:
REMARK  status: ('A' for Active; 'I' for Inactive)
REMARK    1  A    between atoms: C2_2  and  O1_5 
ROOT
HETATM    1  C1  UNL     1     -15.436  12.167  -3.692  1.00  0.00     0.045 C 
HETATM    2  C2  UNL     1     -16.040  10.770  -3.829  1.00  0.00     0.047 C 
HETATM    3  C3  UNL     1     -14.987   9.764  -4.289  1.00  0.00     0.045 C 
HETATM    4  C4  UNL     1     -17.224  10.789  -4.794  1.00  0.00     0.045 C 
ENDROOT
BRANCH   2   5
HETATM    5  O1  UNL     1     -16.533  10.361  -2.552  1.00  0.00    -0.391 OA
HETATM    6  H10 UNL     1     -17.465  10.103  -2.659  1.00  0.00     0.210 HD
ENDBRANCH   2   5
TORSDOF 1
ENDMDL
MODEL 5
REMARK VINA RESULT:      -2.8     15.790     16.387
REMARK  1 active torsions:
REMARK  status: ('A' for Active; 'I' for Inactive)
REMARK    1  A    between atoms: C2_2  and  O1_5 
ROOT
HETATM    1  C1  UNL     1     -14.060  16.213  -4.288  1.00  0.00     0.045 C 
HETATM    2  C2  UNL     1     -15.354  15.687  -3.668  1.00  0.00     0.047 C 
HETATM    3  C3  UNL     1     -15.289  15.740  -2.142  1.00  0.00     0.045 C 
HETATM    4  C4  UNL     1     -15.638  14.264  -4.145  1.00  0.00     0.045 C 
ENDROOT
BRANCH   2   5
HETATM    5  O1  UNL     1     -16.435  16.511  -4.106  1.00  0.00    -0.391 OA
HETATM    6  H10 UNL     1     -17.264  16.114  -3.786  1.00  0.00     0.210 HD
ENDBRANCH   2   5
TORSDOF 1
ENDMDL
MODEL 6
REMARK VINA RESULT:      -2.8     15.773     16.377
REMARK  1 active torsions:
REMARK  status: ('A' for Active; 'I' for Inactive)
REMARK    1  A    between atoms: C2_2  and  O1_5 
ROOT
HETATM    1  C1  UNL     1     -15.609  14.262  -4.140  1.00  0.00     0.045 C 
HETATM    2  C2  UNL     1     -15.348  15.686  -3.651  1.00  0.00     0.047 C 
HETATM    3  C3  UNL     1     -14.058  16.241  -4.253  1.00  0.00     0.045 C 
HETATM    4  C4  UNL     1     -15.291  15.728  -2.125  1.00  0.00     0.045 C 
ENDROOT
BRANCH   2   5
HETATM    5  O1  UNL     1     -16.435  16.514  -4.065  1.00  0.00    -0.391 OA
HETATM    6  H10 UNL     1     -16.578  17.187  -3.377  1.00  0.00     0.210 HD
ENDBRANCH   2   5
TORSDOF 1
ENDMDL
MODEL 7
REMARK VINA RESULT:      -2.8      6.446      7.307
REMARK  1 active torsions:
REMARK  status: ('A' for Active; 'I' for Inactive)
REMARK    1  A    between atoms: C2_2  and  O1_5 
ROOT
HETATM    1  C1  UNL     1     -14.768   7.377   3.719  1.00  0.00     0.045 C 
HETATM    2  C2  UNL     1     -14.270   8.535   2.854  1.00  0.00     0.047 C 
HETATM    3  C3  UNL     1     -13.065   8.110   2.016  1.00  0.00     0.045 C 
HETATM    4  C4  UNL     1     -13.922   9.742   3.723  1.00  0.00     0.045 C 
ENDROOT
BRANCH   2   5
HETATM    5  O1  UNL     1     -15.321   8.928   1.972  1.00  0.00    -0.391 OA
HETATM    6  H10 UNL     1     -16.163   8.851   2.454  1.00  0.00     0.210 HD
ENDBRANCH   2   5
TORSDOF 1
ENDMDL
MODEL 8
REMARK VINA RESULT:      -2.7      4.125      4.952
REMARK  1 active torsions:
REMARK  status: ('A' for Active; 'I' for Inactive)
REMARK    1  A    between atoms: C2_2  and  O1_5 
ROOT
HETATM    1  C1  UNL     1     -13.816   5.233   3.612  1.00  0.00     0.045 C 
HETATM    2  C2  UNL     1     -14.019   6.361   4.624  1.00  0.00     0.047 C 
HETATM    3  C3  UNL     1     -15.256   6.105   5.484  1.00  0.00     0.045 C 
HETATM    4  C4  UNL     1     -14.128   7.708   3.912  1.00  0.00     0.045 C 
ENDROOT
BRANCH   2   5
HETATM    5  O1  UNL     1     -12.876   6.416   5.477  1.00  0.00    -0.391 OA
HETATM    6  H10 UNL     1     -12.104   6.643   4.930  1.00  0.00     0.210 HD
ENDBRANCH   2   5
TORSDOF 1
ENDMDL
MODEL 9
REMARK VINA RESULT:      -2.7      4.200      5.138
REMARK  1 active torsions:
REMARK  status: ('A' for Active; 'I' for Inactive)
REMARK    1  A    between atoms: C2_2  and  O1_5 
ROOT
HETATM    1  C1  UNL     1     -14.054   7.625   3.682  1.00  0.00     0.045 C 
HETATM    2  C2  UNL     1     -13.989   6.321   4.477  1.00  0.00     0.047 C 
HETATM    3  C3  UNL     1     -13.676   5.139   3.562  1.00  0.00     0.045 C 
HETATM    4  C4  UNL     1     -15.298   6.086   5.230  1.00  0.00     0.045 C 
ENDROOT
BRANCH   2   5
HETATM    5  O1  UNL     1     -12.948   6.433   5.448  1.00  0.00    -0.391 OA
HETATM    6  H10 UNL     1     -12.128   6.672   4.983  1.00  0.00     0.210 HD
ENDBRANCH   2   5
TORSDOF 1
ENDMDL
