MODEL 1
REMARK VINA RESULT:      -5.7      0.000      0.000
REMARK  8 active torsions:
REMARK  status: ('A' for Active; 'I' for Inactive)
REMARK    1  A    between atoms: C2_2  and  N1_4 
REMARK    2  A    between atoms: N1_4  and  C4_5 
REMARK    3  A    between atoms: C4_5  and  C5_6 
REMARK    4  A    between atoms: C5_6  and  C6_7 
REMARK    5  A    between atoms: C5_6  and  O3_16 
REMARK    6  A    between atoms: C8_9  and  C12_14 
REMARK    7  A    between atoms: C9_10  and  O1_13 
REMARK    8  A    between atoms: C12_14  and  O2_15 
ROOT
HETATM    1  C6  UNL     1     -16.613  11.589  -4.664  1.00  0.00    -0.027 A 
HETATM    2  C7  UNL     1     -15.900  12.785  -4.468  1.00  0.00     0.022 A 
HETATM    3  C8  UNL     1     -16.212  13.950  -5.188  1.00  0.00    -0.001 A 
HETATM    4  C9  UNL     1     -17.264  13.898  -6.108  1.00  0.00     0.074 A 
HETATM    5  C10 UNL     1     -17.988  12.727  -6.314  1.00  0.00     0.038 A 
HETATM    6  C11 UNL     1     -17.664  11.578  -5.592  1.00  0.00     0.012 A 
ENDROOT
BRANCH   1   7
HETATM    7  C5  UNL     1     -16.259  10.360  -3.852  1.00  0.00     0.179 C 
BRANCH   7   8
HETATM    8  C4  UNL     1     -14.809   9.893  -4.132  1.00  0.00     0.306 C 
BRANCH   8   9
HETATM    9  N1  UNL     1     -14.733   9.145  -5.404  1.00  0.00     0.090 N 
HETATM   10  H8  UNL     1     -14.298   8.244  -5.194  1.00  0.00     0.316 HD
BRANCH   9  11
HETATM   11  C2  UNL     1     -13.928   9.794  -6.452  1.00  0.00     0.212 C 
HETATM   12  C1  UNL     1     -13.011  10.898  -5.921  1.00  0.00     0.042 C 
HETATM   13  C3  UNL     1     -14.787  10.297  -7.614  1.00  0.00     0.042 C 
ENDBRANCH   9  11
ENDBRANCH   8   9
ENDBRANCH   7   8
BRANCH   7  14
HETATM   14  O3  UNL     1     -16.416  10.621  -2.452  1.00  0.00    -0.389 OA
HETATM   15  H19 UNL     1     -16.246  11.575  -2.366  1.00  0.00     0.210 HD
ENDBRANCH   7  14
ENDBRANCH   1   7
BRANCH   3  16
HETATM   16  C12 UNL     1     -15.446  15.222  -4.927  1.00  0.00     0.205 C 
BRANCH  16  17
HETATM   17  O2  UNL     1     -16.314  16.325  -4.702  1.00  0.00    -0.396 OA
HETATM   18  H18 UNL     1     -17.117  16.131  -5.226  1.00  0.00     0.209 HD
ENDBRANCH  16  17
ENDBRANCH   3  16
BRANCH   4  19
HETATM   19  O1  UNL     1     -17.566  15.027  -6.821  1.00  0.00    -0.360 OA
HETATM   20  H15 UNL     1     -18.456  14.922  -7.197  1.00  0.00     0.217 HD
ENDBRANCH   4  19
TORSDOF 8
ENDMDL
MODEL 2
REMARK VINA RESULT:      -5.4      9.005     11.048
REMARK  8 active torsions:
REMARK  status: ('A' for Active; 'I' for Inactive)
REMARK    1  A    between atoms: C2_2  and  N1_4 
REMARK    2  A    between atoms: N1_4  and  C4_5 
REMARK    3  A    between atoms: C4_5  and  C5_6 
REMARK    4  A    between atoms: C5_6  and  C6_7 
REMARK    5  A    between atoms: C5_6  and  O3_16 
REMARK    6  A    between atoms: C8_9  and  C12_14 
REMARK    7  A    between atoms: C9_10  and  O1_13 
REMARK    8  A    between atoms: C12_14  and  O2_15 
ROOT
HETATM    1  C6  UNL     1     -13.407   7.875   3.936  1.00  0.00    -0.027 A 
HETATM    2  C7  UNL     1     -13.226   9.265   4.054  1.00  0.00     0.022 A 
HETATM    3  C8  UNL     1     -12.724  10.031   2.990  1.00  0.00    -0.001 A 
HETATM    4  C9  UNL     1     -12.412   9.378   1.792  1.00  0.00     0.074 A 
HETATM    5  C10 UNL     1     -12.589   8.004   1.650  1.00  0.00     0.038 A 
HETATM    6  C11 UNL     1     -13.087   7.258   2.719  1.00  0.00     0.012 A 
ENDROOT
BRANCH   1   7
HETATM    7  C5  UNL     1     -13.971   7.088   5.100  1.00  0.00     0.179 C 
BRANCH   7   8
HETATM    8  C4  UNL     1     -15.238   6.296   4.691  1.00  0.00     0.306 C 
BRANCH   8   9
HETATM    9  N1  UNL     1     -15.069   4.854   4.964  1.00  0.00     0.090 N 
HETATM   10  H8  UNL     1     -15.178   4.367   4.071  1.00  0.00     0.316 HD
BRANCH   9  11
HETATM   11  C2  UNL     1     -16.050   4.287   5.903  1.00  0.00     0.212 C 
HETATM   12  C1  UNL     1     -17.041   3.326   5.243  1.00  0.00     0.042 C 
HETATM   13  C3  UNL     1     -16.776   5.368   6.704  1.00  0.00     0.042 C 
ENDBRANCH   9  11
ENDBRANCH   8   9
ENDBRANCH   7   8
BRANCH   7  14
HETATM   14  O3  UNL     1     -12.989   6.184   5.620  1.00  0.00    -0.389 OA
HETATM   15  H19 UNL     1     -12.252   6.760   5.888  1.00  0.00     0.210 HD
ENDBRANCH   7  14
ENDBRANCH   1   7
BRANCH   3  16
HETATM   16  C12 UNL     1     -12.575  11.524   3.143  1.00  0.00     0.205 C 
BRANCH  16  17
HETATM   17  O2  UNL     1     -11.213  11.908   3.275  1.00  0.00    -0.396 OA
HETATM   18  H18 UNL     1     -11.228  12.738   3.791  1.00  0.00     0.209 HD
ENDBRANCH  16  17
ENDBRANCH   3  16
BRANCH   4  19
HETATM   19  O1  UNL     1     -11.912  10.118   0.755  1.00  0.00    -0.360 OA
HETATM   20  H15 UNL     1     -11.912  11.053   1.020  1.00  0.00     0.217 HD
ENDBRANCH   4  19
TORSDOF 8
ENDMDL
MODEL 3
REMARK VINA RESULT:      -5.3      2.136      2.897
REMARK  8 active torsions:
REMARK  status: ('A' for Active; 'I' for Inactive)
REMARK    1  A    between atoms: C2_2  and  N1_4 
REMARK    2  A    between atoms: N1_4  and  C4_5 
REMARK    3  A    between atoms: C4_5  and  C5_6 
REMARK    4  A    between atoms: C5_6  and  C6_7 
REMARK    5  A    between atoms: C5_6  and  O3_16 
REMARK    6  A    between atoms: C8_9  and  C12_14 
REMARK    7  A    between atoms: C9_10  and  O1_13 
REMARK    8  A    between atoms: C12_14  and  O2_15 
ROOT
HETATM    1  C6  UNL     1     -16.296  11.696  -4.602  1.00  0.00    -0.027 A 
HETATM    2  C7  UNL     1     -15.666  12.952  -4.534  1.00  0.00     0.022 A 
HETATM    3  C8  UNL     1     -16.141  14.050  -5.270  1.00  0.00    -0.001 A 
HETATM    4  C9  UNL     1     -17.272  13.870  -6.074  1.00  0.00     0.074 A 
HETATM    5  C10 UNL     1     -17.914  12.637  -6.152  1.00  0.00     0.038 A 
HETATM    6  C11 UNL     1     -17.428  11.557  -5.416  1.00  0.00     0.012 A 
ENDROOT
BRANCH   1   7
HETATM    7  C5  UNL     1     -15.764  10.544  -3.776  1.00  0.00     0.179 C 
BRANCH   7   8
HETATM    8  C4  UNL     1     -14.309  10.801  -3.311  1.00  0.00     0.306 C 
BRANCH   8   9
HETATM    9  N1  UNL     1     -14.257  11.040  -1.854  1.00  0.00     0.090 N 
HETATM   10  H8  UNL     1     -15.122  11.520  -1.599  1.00  0.00     0.316 HD
BRANCH   9  11
HETATM   11  C2  UNL     1     -13.134  11.881  -1.408  1.00  0.00     0.212 C 
HETATM   12  C1  UNL     1     -12.506  11.416  -0.093  1.00  0.00     0.042 C 
HETATM   13  C3  UNL     1     -13.509  13.363  -1.350  1.00  0.00     0.042 C 
ENDBRANCH   9  11
ENDBRANCH   8   9
ENDBRANCH   7   8
BRANCH   7  14
HETATM   14  O3  UNL     1     -16.598  10.317  -2.633  1.00  0.00    -0.389 OA
HETATM   15  H19 UNL     1     -17.222  11.064  -2.641  1.00  0.00     0.210 HD
ENDBRANCH   7  14
ENDBRANCH   1   7
BRANCH   3  16
HETATM   16  C12 UNL     1     -15.460  15.390  -5.145  1.00  0.00     0.205 C 
BRANCH  16  17
HETATM   17  O2  UNL     1     -16.379  16.422  -4.814  1.00  0.00    -0.396 OA
HETATM   18  H18 UNL     1     -15.864  17.069  -4.294  1.00  0.00     0.209 HD
ENDBRANCH  16  17
ENDBRANCH   3  16
BRANCH   4  19
HETATM   19  O1  UNL     1     -17.733  14.933  -6.802  1.00  0.00    -0.360 OA
HETATM   20  H15 UNL     1     -18.669  14.776  -7.012  1.00  0.00     0.217 HD
ENDBRANCH   4  19
TORSDOF 8
ENDMDL
MODEL 4
REMARK VINA RESULT:      -5.3     11.380     14.188
REMARK  8 active torsions:
REMARK  status: ('A' for Active; 'I' for Inactive)
REMARK    1  A    between atoms: C2_2  and  N1_4 
REMARK    2  A    between atoms: N1_4  and  C4_5 
REMARK    3  A    between atoms: C4_5  and  C5_6 
REMARK    4  A    between atoms: C5_6  and  C6_7 
REMARK    5  A    between atoms: C5_6  and  O3_16 
REMARK    6  A    between atoms: C8_9  and  C12_14 
REMARK    7  A    between atoms: C9_10  and  O1_13 
REMARK    8  A    between atoms: C12_14  and  O2_15 
ROOT
HETATM    1  C6  UNL     1     -15.931   4.210   5.281  1.00  0.00    -0.027 A 
HETATM    2  C7  UNL     1     -16.036   2.861   4.895  1.00  0.00     0.022 A 
HETATM    3  C8  UNL     1     -16.800   1.945   5.636  1.00  0.00    -0.001 A 
HETATM    4  C9  UNL     1     -17.470   2.408   6.775  1.00  0.00     0.074 A 
HETATM    5  C10 UNL     1     -17.385   3.740   7.172  1.00  0.00     0.038 A 
HETATM    6  C11 UNL     1     -16.620   4.636   6.425  1.00  0.00     0.012 A 
ENDROOT
BRANCH   1   7
HETATM    7  C5  UNL     1     -15.114   5.170   4.442  1.00  0.00     0.179 C 
BRANCH   7   8
HETATM    8  C4  UNL     1     -14.816   6.483   5.209  1.00  0.00     0.306 C 
BRANCH   8   9
HETATM    9  N1  UNL     1     -13.424   6.921   4.980  1.00  0.00     0.090 N 
HETATM   10  H8  UNL     1     -12.997   7.049   5.900  1.00  0.00     0.316 HD
BRANCH   9  11
HETATM   11  C2  UNL     1     -13.292   8.192   4.249  1.00  0.00     0.212 C 
HETATM   12  C1  UNL     1     -13.342   9.425   5.153  1.00  0.00     0.042 C 
HETATM   13  C3  UNL     1     -14.296   8.305   3.100  1.00  0.00     0.042 C 
ENDBRANCH   9  11
ENDBRANCH   8   9
ENDBRANCH   7   8
BRANCH   7  14
HETATM   14  O3  UNL     1     -13.882   4.562   4.037  1.00  0.00    -0.389 OA
HETATM   15  H19 UNL     1     -13.893   4.624   3.066  1.00  0.00     0.210 HD
ENDBRANCH   7  14
ENDBRANCH   1   7
BRANCH   3  16
HETATM   16  C12 UNL     1     -16.916   0.515   5.173  1.00  0.00     0.205 C 
BRANCH  16  17
HETATM   17  O2  UNL     1     -16.587  -0.404   6.206  1.00  0.00    -0.396 OA
HETATM   18  H18 UNL     1     -16.756   0.076   7.041  1.00  0.00     0.209 HD
ENDBRANCH  16  17
ENDBRANCH   3  16
BRANCH   4  19
HETATM   19  O1  UNL     1     -18.207   1.517   7.507  1.00  0.00    -0.360 OA
HETATM   20  H15 UNL     1     -18.900   1.151   6.933  1.00  0.00     0.217 HD
ENDBRANCH   4  19
TORSDOF 8
ENDMDL
MODEL 5
REMARK VINA RESULT:      -5.3      2.935      5.281
REMARK  8 active torsions:
REMARK  status: ('A' for Active; 'I' for Inactive)
REMARK    1  A    between atoms: C2_2  and  N1_4 
REMARK    2  A    between atoms: N1_4  and  C4_5 
REMARK    3  A    between atoms: C4_5  and  C5_6 
REMARK    4  A    between atoms: C5_6  and  C6_7 
REMARK    5  A    between atoms: C5_6  and  O3_16 
REMARK    6  A    between atoms: C8_9  and  C12_14 
REMARK    7  A    between atoms: C9_10  and  O1_13 
REMARK    8  A    between atoms: C12_14  and  O2_15 
ROOT
HETATM    1  C6  UNL     1     -16.245  14.182  -5.548  1.00  0.00    -0.027 A 
HETATM    2  C7  UNL     1     -15.658  13.315  -4.609  1.00  0.00     0.022 A 
HETATM    3  C8  UNL     1     -16.190  12.039  -4.360  1.00  0.00    -0.001 A 
HETATM    4  C9  UNL     1     -17.322  11.640  -5.079  1.00  0.00     0.074 A 
HETATM    5  C10 UNL     1     -17.916  12.481  -6.018  1.00  0.00     0.038 A 
HETATM    6  C11 UNL     1     -17.375  13.745  -6.252  1.00  0.00     0.012 A 
ENDROOT
BRANCH   1   7
HETATM    7  C5  UNL     1     -15.627  15.542  -5.803  1.00  0.00     0.179 C 
BRANCH   7   8
HETATM    8  C4  UNL     1     -15.157  15.686  -7.272  1.00  0.00     0.306 C 
BRANCH   8   9
HETATM    9  N1  UNL     1     -15.974  16.686  -7.990  1.00  0.00     0.090 N 
HETATM   10  H8  UNL     1     -16.560  17.148  -7.292  1.00  0.00     0.316 HD
BRANCH   9  11
HETATM   11  C2  UNL     1     -16.866  16.126  -9.019  1.00  0.00     0.212 C 
HETATM   12  C1  UNL     1     -16.320  14.857  -9.676  1.00  0.00     0.042 C 
HETATM   13  C3  UNL     1     -17.264  17.167 -10.068  1.00  0.00     0.042 C 
ENDBRANCH   9  11
ENDBRANCH   8   9
ENDBRANCH   7   8
BRANCH   7  14
HETATM   14  O3  UNL     1     -16.561  16.584  -5.495  1.00  0.00    -0.389 OA
HETATM   15  H19 UNL     1     -17.013  16.757  -6.340  1.00  0.00     0.210 HD
ENDBRANCH   7  14
ENDBRANCH   1   7
BRANCH   3  16
HETATM   16  C12 UNL     1     -15.515  11.124  -3.370  1.00  0.00     0.205 C 
BRANCH  16  17
HETATM   17  O2  UNL     1     -16.430  10.619  -2.407  1.00  0.00    -0.396 OA
HETATM   18  H18 UNL     1     -17.305  10.648  -2.843  1.00  0.00     0.209 HD
ENDBRANCH  16  17
ENDBRANCH   3  16
BRANCH   4  19
HETATM   19  O1  UNL     1     -17.852  10.402  -4.832  1.00  0.00    -0.360 OA
HETATM   20  H15 UNL     1     -18.555  10.498  -4.168  1.00  0.00     0.217 HD
ENDBRANCH   4  19
TORSDOF 8
ENDMDL
MODEL 6
REMARK VINA RESULT:      -5.0      2.317      4.391
REMARK  8 active torsions:
REMARK  status: ('A' for Active; 'I' for Inactive)
REMARK    1  A    between atoms: C2_2  and  N1_4 
REMARK    2  A    between atoms: N1_4  and  C4_5 
REMARK    3  A    between atoms: C4_5  and  C5_6 
REMARK    4  A    between atoms: C5_6  and  C6_7 
REMARK    5  A    between atoms: C5_6  and  O3_16 
REMARK    6  A    between atoms: C8_9  and  C12_14 
REMARK    7  A    between atoms: C9_10  and  O1_13 
REMARK    8  A    between atoms: C12_14  and  O2_15 
ROOT
HETATM    1  C6  UNL     1     -16.598  13.864  -5.706  1.00  0.00    -0.027 A 
HETATM    2  C7  UNL     1     -15.792  13.328  -4.686  1.00  0.00     0.022 A 
HETATM    3  C8  UNL     1     -16.040  12.054  -4.150  1.00  0.00    -0.001 A 
HETATM    4  C9  UNL     1     -17.113  11.316  -4.664  1.00  0.00     0.074 A 
HETATM    5  C10 UNL     1     -17.920  11.824  -5.678  1.00  0.00     0.038 A 
HETATM    6  C11 UNL     1     -17.660  13.092  -6.198  1.00  0.00     0.012 A 
ENDROOT
BRANCH   1   7
HETATM    7  C5  UNL     1     -16.284  15.233  -6.271  1.00  0.00     0.179 C 
BRANCH   7   8
HETATM    8  C4  UNL     1     -15.006  15.207  -7.147  1.00  0.00     0.306 C 
BRANCH   8   9
HETATM    9  N1  UNL     1     -15.295  14.645  -8.483  1.00  0.00     0.090 N 
HETATM   10  H8  UNL     1     -16.298  14.450  -8.513  1.00  0.00     0.316 HD
BRANCH   9  11
HETATM   11  C2  UNL     1     -14.589  13.390  -8.789  1.00  0.00     0.212 C 
HETATM   12  C1  UNL     1     -15.528  12.215  -9.070  1.00  0.00     0.042 C 
HETATM   13  C3  UNL     1     -13.557  13.032  -7.718  1.00  0.00     0.042 C 
ENDBRANCH   9  11
ENDBRANCH   8   9
ENDBRANCH   7   8
BRANCH   7  14
HETATM   14  O3  UNL     1     -17.385  15.723  -7.047  1.00  0.00    -0.389 OA
HETATM   15  H19 UNL     1     -18.132  15.727  -6.423  1.00  0.00     0.210 HD
ENDBRANCH   7  14
ENDBRANCH   1   7
BRANCH   3  16
HETATM   16  C12 UNL     1     -15.134  11.499  -3.080  1.00  0.00     0.205 C 
BRANCH  16  17
HETATM   17  O2  UNL     1     -15.850  11.184  -1.893  1.00  0.00    -0.396 OA
HETATM   18  H18 UNL     1     -15.636  10.249  -1.704  1.00  0.00     0.209 HD
ENDBRANCH  16  17
ENDBRANCH   3  16
BRANCH   4  19
HETATM   19  O1  UNL     1     -17.366  10.078  -4.138  1.00  0.00    -0.360 OA
HETATM   20  H15 UNL     1     -18.144   9.709  -4.590  1.00  0.00     0.217 HD
ENDBRANCH   4  19
TORSDOF 8
ENDMDL
MODEL 7
REMARK VINA RESULT:      -5.0      1.472      2.590
REMARK  8 active torsions:
REMARK  status: ('A' for Active; 'I' for Inactive)
REMARK    1  A    between atoms: C2_2  and  N1_4 
REMARK    2  A    between atoms: N1_4  and  C4_5 
REMARK    3  A    between atoms: C4_5  and  C5_6 
REMARK    4  A    between atoms: C5_6  and  C6_7 
REMARK    5  A    between atoms: C5_6  and  O3_16 
REMARK    6  A    between atoms: C8_9  and  C12_14 
REMARK    7  A    between atoms: C9_10  and  O1_13 
REMARK    8  A    between atoms: C12_14  and  O2_15 
ROOT
HETATM    1  C6  UNL     1     -15.646  12.226  -3.796  1.00  0.00    -0.027 A 
HETATM    2  C7  UNL     1     -16.087  13.103  -4.804  1.00  0.00     0.022 A 
HETATM    3  C8  UNL     1     -15.724  14.460  -4.803  1.00  0.00    -0.001 A 
HETATM    4  C9  UNL     1     -14.899  14.925  -3.773  1.00  0.00     0.074 A 
HETATM    5  C10 UNL     1     -14.446  14.073  -2.769  1.00  0.00     0.038 A 
HETATM    6  C11 UNL     1     -14.817  12.728  -2.784  1.00  0.00     0.012 A 
ENDROOT
BRANCH   1   7
HETATM    7  C5  UNL     1     -16.042  10.765  -3.846  1.00  0.00     0.179 C 
BRANCH   7   8
HETATM    8  C4  UNL     1     -14.871   9.875  -4.332  1.00  0.00     0.306 C 
BRANCH   8   9
HETATM    9  N1  UNL     1     -14.922   9.693  -5.797  1.00  0.00     0.090 N 
HETATM   10  H8  UNL     1     -15.771   9.163  -6.003  1.00  0.00     0.316 HD
BRANCH   9  11
HETATM   11  C2  UNL     1     -13.785   8.947  -6.364  1.00  0.00     0.212 C 
HETATM   12  C1  UNL     1     -14.091   8.306  -7.719  1.00  0.00     0.042 C 
HETATM   13  C3  UNL     1     -13.219   7.921  -5.380  1.00  0.00     0.042 C 
ENDBRANCH   9  11
ENDBRANCH   8   9
ENDBRANCH   7   8
BRANCH   7  14
HETATM   14  O3  UNL     1     -16.480  10.318  -2.557  1.00  0.00    -0.389 OA
HETATM   15  H19 UNL     1     -16.604  11.139  -2.049  1.00  0.00     0.210 HD
ENDBRANCH   7  14
ENDBRANCH   1   7
BRANCH   3  16
HETATM   16  C12 UNL     1     -16.189  15.363  -5.918  1.00  0.00     0.205 C 
BRANCH  16  17
HETATM   17  O2  UNL     1     -16.640  16.618  -5.427  1.00  0.00    -0.396 OA
HETATM   18  H18 UNL     1     -15.915  16.949  -4.862  1.00  0.00     0.209 HD
ENDBRANCH  16  17
ENDBRANCH   3  16
BRANCH   4  19
HETATM   19  O1  UNL     1     -14.551  16.249  -3.760  1.00  0.00    -0.360 OA
HETATM   20  H15 UNL     1     -13.584  16.310  -3.842  1.00  0.00     0.217 HD
ENDBRANCH   4  19
TORSDOF 8
ENDMDL
MODEL 8
REMARK VINA RESULT:      -5.0      1.500      1.930
REMARK  8 active torsions:
REMARK  status: ('A' for Active; 'I' for Inactive)
REMARK    1  A    between atoms: C2_2  and  N1_4 
REMARK    2  A    between atoms: N1_4  and  C4_5 
REMARK    3  A    between atoms: C4_5  and  C5_6 
REMARK    4  A    between atoms: C5_6  and  C6_7 
REMARK    5  A    between atoms: C5_6  and  O3_16 
REMARK    6  A    between atoms: C8_9  and  C12_14 
REMARK    7  A    between atoms: C9_10  and  O1_13 
REMARK    8  A    between atoms: C12_14  and  O2_15 
ROOT
HETATM    1  C6  UNL     1     -16.532  12.413  -5.176  1.00  0.00    -0.027 A 
HETATM    2  C7  UNL     1     -15.799  13.246  -4.312  1.00  0.00     0.022 A 
HETATM    3  C8  UNL     1     -15.730  14.634  -4.515  1.00  0.00    -0.001 A 
HETATM    4  C9  UNL     1     -16.421  15.179  -5.603  1.00  0.00     0.074 A 
HETATM    5  C10 UNL     1     -17.158  14.374  -6.469  1.00  0.00     0.038 A 
HETATM    6  C11 UNL     1     -17.214  12.997  -6.252  1.00  0.00     0.012 A 
ENDROOT
BRANCH   1   7
HETATM    7  C5  UNL     1     -16.598  10.924  -4.909  1.00  0.00     0.179 C 
BRANCH   7   8
HETATM    8  C4  UNL     1     -15.779  10.536  -3.652  1.00  0.00     0.306 C 
BRANCH   8   9
HETATM    9  N1  UNL     1     -14.990   9.311  -3.896  1.00  0.00     0.090 N 
HETATM   10  H8  UNL     1     -14.495   9.098  -3.027  1.00  0.00     0.316 HD
BRANCH   9  11
HETATM   11  C2  UNL     1     -13.982   9.432  -4.962  1.00  0.00     0.212 C 
HETATM   12  C1  UNL     1     -13.307   8.106  -5.316  1.00  0.00     0.042 C 
HETATM   13  C3  UNL     1     -12.948  10.518  -4.661  1.00  0.00     0.042 C 
ENDBRANCH   9  11
ENDBRANCH   8   9
ENDBRANCH   7   8
BRANCH   7  14
HETATM   14  O3  UNL     1     -17.957  10.502  -4.744  1.00  0.00    -0.389 OA
HETATM   15  H19 UNL     1     -17.947   9.983  -3.920  1.00  0.00     0.210 HD
ENDBRANCH   7  14
ENDBRANCH   1   7
BRANCH   3  16
HETATM   16  C12 UNL     1     -14.961  15.498  -3.548  1.00  0.00     0.205 C 
BRANCH  16  17
HETATM   17  O2  UNL     1     -13.983  16.289  -4.209  1.00  0.00    -0.396 OA
HETATM   18  H18 UNL     1     -13.420  16.651  -3.497  1.00  0.00     0.209 HD
ENDBRANCH  16  17
ENDBRANCH   3  16
BRANCH   4  19
HETATM   19  O1  UNL     1     -16.349  16.530  -5.813  1.00  0.00    -0.360 OA
HETATM   20  H15 UNL     1     -15.649  16.890  -5.243  1.00  0.00     0.217 HD
ENDBRANCH   4  19
TORSDOF 8
ENDMDL
MODEL 9
REMARK VINA RESULT:      -4.9     10.324     12.611
REMARK  8 active torsions:
REMARK  status: ('A' for Active; 'I' for Inactive)
REMARK    1  A    between atoms: C2_2  and  N1_4 
REMARK    2  A    between atoms: N1_4  and  C4_5 
REMARK    3  A    between atoms: C4_5  and  C5_6 
REMARK    4  A    between atoms: C5_6  and  C6_7 
REMARK    5  A    between atoms: C5_6  and  O3_16 
REMARK    6  A    between atoms: C8_9  and  C12_14 
REMARK    7  A    between atoms: C9_10  and  O1_13 
REMARK    8  A    between atoms: C12_14  and  O2_15 
ROOT
HETATM    1  C6  UNL     1     -15.244   5.427   4.350  1.00  0.00    -0.027 A 
HETATM    2  C7  UNL     1     -15.259   6.818   4.140  1.00  0.00     0.022 A 
HETATM    3  C8  UNL     1     -14.272   7.452   3.367  1.00  0.00    -0.001 A 
HETATM    4  C9  UNL     1     -13.268   6.662   2.797  1.00  0.00     0.074 A 
HETATM    5  C10 UNL     1     -13.237   5.283   2.987  1.00  0.00     0.038 A 
HETATM    6  C11 UNL     1     -14.224   4.670   3.758  1.00  0.00     0.012 A 
ENDROOT
BRANCH   1   7
HETATM    7  C5  UNL     1     -16.338   4.780   5.173  1.00  0.00     0.179 C 
BRANCH   7   8
HETATM    8  C4  UNL     1     -16.237   3.234   5.137  1.00  0.00     0.306 C 
BRANCH   8   9
HETATM    9  N1  UNL     1     -17.484   2.614   5.631  1.00  0.00     0.090 N 
HETATM   10  H8  UNL     1     -18.130   3.376   5.847  1.00  0.00     0.316 HD
BRANCH   9  11
HETATM   11  C2  UNL     1     -17.327   1.805   6.851  1.00  0.00     0.212 C 
HETATM   12  C1  UNL     1     -17.902   2.471   8.103  1.00  0.00     0.042 C 
HETATM   13  C3  UNL     1     -15.878   1.367   7.072  1.00  0.00     0.042 C 
ENDBRANCH   9  11
ENDBRANCH   8   9
ENDBRANCH   7   8
BRANCH   7  14
HETATM   14  O3  UNL     1     -16.282   5.232   6.531  1.00  0.00    -0.389 OA
HETATM   15  H19 UNL     1     -15.561   5.886   6.535  1.00  0.00     0.210 HD
ENDBRANCH   7  14
ENDBRANCH   1   7
BRANCH   3  16
HETATM   16  C12 UNL     1     -14.340   8.941   3.137  1.00  0.00     0.205 C 
BRANCH  16  17
HETATM   17  O2  UNL     1     -14.315   9.263   1.753  1.00  0.00    -0.396 OA
HETATM   18  H18 UNL     1     -15.253   9.330   1.487  1.00  0.00     0.209 HD
ENDBRANCH  16  17
ENDBRANCH   3  16
BRANCH   4  19
HETATM   19  O1  UNL     1     -12.297   7.276   2.052  1.00  0.00    -0.360 OA
HETATM   20  H15 UNL     1     -12.676   7.501   1.185  1.00  0.00     0.217 HD
ENDBRANCH   4  19
TORSDOF 8
ENDMDL
