MODEL 1
REMARK VINA RESULT:      -5.2      0.000      0.000
REMARK  0 active torsions:
REMARK  status: ('A' for Active; 'I' for Inactive)
ROOT
HETATM    1  C1  UNL     1     -14.796   0.505   3.169  1.00  0.00     0.157 C 
HETATM    2  N1  UNL     1     -15.552   0.885   4.336  1.00  0.00    -0.340 N 
HETATM    3  C2  UNL     1     -16.252   0.041   5.157  1.00  0.00     0.184 A 
HETATM    4  N2  UNL     1     -16.838   0.694   6.140  1.00  0.00    -0.336 N 
ATOM      5  H2  UNL     1     -17.418   0.311   6.887  1.00  0.00     0.168 HD
HETATM    6  C3  UNL     1     -16.496   1.996   5.934  1.00  0.00     0.145 A 
HETATM    7  C4  UNL     1     -15.706   2.147   4.834  1.00  0.00     0.149 A 
HETATM    8  C5  UNL     1     -15.210   3.405   4.398  1.00  0.00     0.282 A 
HETATM    9  O1  UNL     1     -14.499   3.530   3.405  1.00  0.00    -0.265 OA
HETATM   10  N3  UNL     1     -15.620   4.461   5.217  1.00  0.00    -0.269 N 
HETATM   11  C6  UNL     1     -16.436   4.346   6.362  1.00  0.00     0.332 A 
HETATM   12  O2  UNL     1     -16.745   5.342   7.023  1.00  0.00    -0.246 OA
HETATM   13  N4  UNL     1     -16.873   3.066   6.708  1.00  0.00    -0.287 N 
HETATM   14  C7  UNL     1     -17.715   2.861   7.872  1.00  0.00     0.163 C 
HETATM   15  C8  UNL     1     -15.179   5.800   4.877  1.00  0.00     0.164 C 
ENDROOT
TORSDOF 0
ENDMDL
MODEL 2
REMARK VINA RESULT:      -5.1     12.808     14.710
REMARK  0 active torsions:
REMARK  status: ('A' for Active; 'I' for Inactive)
ROOT
HETATM    1  C1  UNL     1     -14.391  11.335  -2.566  1.00  0.00     0.157 C 
HETATM    2  N1  UNL     1     -15.472  11.445  -3.513  1.00  0.00    -0.340 N 
HETATM    3  C2  UNL     1     -16.386  10.470  -3.814  1.00  0.00     0.184 A 
HETATM    4  N2  UNL     1     -17.251  10.878  -4.721  1.00  0.00    -0.336 N 
ATOM      5  H2  UNL     1     -18.030  10.355  -5.121  1.00  0.00     0.168 HD
HETATM    6  C3  UNL     1     -16.870  12.155  -5.002  1.00  0.00     0.145 A 
HETATM    7  C4  UNL     1     -15.781  12.533  -4.277  1.00  0.00     0.149 A 
HETATM    8  C5  UNL     1     -15.182  13.818  -4.382  1.00  0.00     0.282 A 
HETATM    9  O1  UNL     1     -14.201  14.149  -3.724  1.00  0.00    -0.265 OA
HETATM   10  N3  UNL     1     -15.833  14.643  -5.305  1.00  0.00    -0.269 N 
HETATM   11  C6  UNL     1     -16.961  14.288  -6.074  1.00  0.00     0.332 A 
HETATM   12  O2  UNL     1     -17.465  15.090  -6.867  1.00  0.00    -0.246 OA
HETATM   13  N4  UNL     1     -17.474  13.002  -5.898  1.00  0.00    -0.287 N 
HETATM   14  C7  UNL     1     -18.633  12.560  -6.651  1.00  0.00     0.163 C 
HETATM   15  C8  UNL     1     -15.317  15.983  -5.505  1.00  0.00     0.164 C 
ENDROOT
TORSDOF 0
ENDMDL
MODEL 3
REMARK VINA RESULT:      -5.0     12.669     14.670
REMARK  0 active torsions:
REMARK  status: ('A' for Active; 'I' for Inactive)
ROOT
HETATM    1  C1  UNL     1     -15.601   9.964  -3.928  1.00  0.00     0.157 C 
HETATM    2  N1  UNL     1     -15.442  11.347  -3.557  1.00  0.00    -0.340 N 
HETATM    3  C2  UNL     1     -14.911  11.814  -2.383  1.00  0.00     0.184 A 
HETATM    4  N2  UNL     1     -14.903  13.132  -2.343  1.00  0.00    -0.336 N 
ATOM      5  H2  UNL     1     -14.565  13.732  -1.591  1.00  0.00     0.168 HD
HETATM    6  C3  UNL     1     -15.446  13.511  -3.533  1.00  0.00     0.145 A 
HETATM    7  C4  UNL     1     -15.788  12.439  -4.301  1.00  0.00     0.149 A 
HETATM    8  C5  UNL     1     -16.375  12.559  -5.590  1.00  0.00     0.282 A 
HETATM    9  O1  UNL     1     -16.679  11.586  -6.274  1.00  0.00    -0.265 OA
HETATM   10  N3  UNL     1     -16.560  13.889  -5.978  1.00  0.00    -0.269 N 
HETATM   11  C6  UNL     1     -16.220  15.024  -5.212  1.00  0.00     0.332 A 
HETATM   12  O2  UNL     1     -16.424  16.164  -5.643  1.00  0.00    -0.246 OA
HETATM   13  N4  UNL     1     -15.649  14.801  -3.959  1.00  0.00    -0.287 N 
HETATM   14  C7  UNL     1     -15.270  15.915  -3.109  1.00  0.00     0.163 C 
HETATM   15  C8  UNL     1     -17.152  14.146  -7.276  1.00  0.00     0.164 C 
ENDROOT
TORSDOF 0
ENDMDL
MODEL 4
REMARK VINA RESULT:      -5.0     13.843     15.769
REMARK  0 active torsions:
REMARK  status: ('A' for Active; 'I' for Inactive)
ROOT
HETATM    1  C1  UNL     1     -14.506  14.035  -1.731  1.00  0.00     0.157 C 
HETATM    2  N1  UNL     1     -14.983  14.691  -2.921  1.00  0.00    -0.340 N 
HETATM    3  C2  UNL     1     -14.934  16.036  -3.180  1.00  0.00     0.184 A 
HETATM    4  N2  UNL     1     -15.452  16.324  -4.357  1.00  0.00    -0.336 N 
ATOM      5  H2  UNL     1     -15.541  17.242  -4.793  1.00  0.00     0.168 HD
HETATM    6  C3  UNL     1     -15.841  15.120  -4.860  1.00  0.00     0.145 A 
HETATM    7  C4  UNL     1     -15.567  14.097  -4.004  1.00  0.00     0.149 A 
HETATM    8  C5  UNL     1     -15.873  12.739  -4.288  1.00  0.00     0.282 A 
HETATM    9  O1  UNL     1     -15.621  11.824  -3.509  1.00  0.00    -0.265 OA
HETATM   10  N3  UNL     1     -16.480  12.572  -5.536  1.00  0.00    -0.269 N 
HETATM   11  C6  UNL     1     -16.780  13.603  -6.450  1.00  0.00     0.332 A 
HETATM   12  O2  UNL     1     -17.321  13.354  -7.532  1.00  0.00    -0.246 OA
HETATM   13  N4  UNL     1     -16.441  14.904  -6.077  1.00  0.00    -0.287 N 
HETATM   14  C7  UNL     1     -16.715  16.022  -6.961  1.00  0.00     0.163 C 
HETATM   15  C8  UNL     1     -16.842  11.228  -5.944  1.00  0.00     0.164 C 
ENDROOT
TORSDOF 0
ENDMDL
MODEL 5
REMARK VINA RESULT:      -5.0     12.349     14.507
REMARK  0 active torsions:
REMARK  status: ('A' for Active; 'I' for Inactive)
ROOT
HETATM    1  C1  UNL     1     -16.316  15.925  -6.130  1.00  0.00     0.157 C 
HETATM    2  N1  UNL     1     -16.419  14.547  -5.724  1.00  0.00    -0.340 N 
HETATM    3  C2  UNL     1     -17.096  13.556  -6.386  1.00  0.00     0.184 A 
HETATM    4  N2  UNL     1     -17.001  12.401  -5.759  1.00  0.00    -0.336 N 
ATOM      5  H2  UNL     1     -17.408  11.506  -6.033  1.00  0.00     0.168 HD
HETATM    6  C3  UNL     1     -16.238  12.670  -4.664  1.00  0.00     0.145 A 
HETATM    7  C4  UNL     1     -15.864  13.978  -4.613  1.00  0.00     0.149 A 
HETATM    8  C5  UNL     1     -15.064  14.521  -3.571  1.00  0.00     0.282 A 
HETATM    9  O1  UNL     1     -14.732  15.702  -3.535  1.00  0.00    -0.265 OA
HETATM   10  N3  UNL     1     -14.706  13.567  -2.613  1.00  0.00    -0.269 N 
HETATM   11  C6  UNL     1     -15.072  12.205  -2.631  1.00  0.00     0.332 A 
HETATM   12  O2  UNL     1     -14.706  11.438  -1.734  1.00  0.00    -0.246 OA
HETATM   13  N4  UNL     1     -15.861  11.770  -3.697  1.00  0.00    -0.287 N 
HETATM   14  C7  UNL     1     -16.280  10.384  -3.789  1.00  0.00     0.163 C 
HETATM   15  C8  UNL     1     -13.887  13.996  -1.496  1.00  0.00     0.164 C 
ENDROOT
TORSDOF 0
ENDMDL
MODEL 6
REMARK VINA RESULT:      -5.0      1.655      3.700
REMARK  0 active torsions:
REMARK  status: ('A' for Active; 'I' for Inactive)
ROOT
HETATM    1  C1  UNL     1     -14.590   6.356   4.422  1.00  0.00     0.157 C 
HETATM    2  N1  UNL     1     -15.427   5.439   5.153  1.00  0.00    -0.340 N 
HETATM    3  C2  UNL     1     -16.270   5.759   6.185  1.00  0.00     0.184 A 
HETATM    4  N2  UNL     1     -16.899   4.696   6.646  1.00  0.00    -0.336 N 
ATOM      5  H2  UNL     1     -17.577   4.653   7.406  1.00  0.00     0.168 HD
HETATM    6  C3  UNL     1     -16.439   3.670   5.878  1.00  0.00     0.145 A 
HETATM    7  C4  UNL     1     -15.534   4.092   4.952  1.00  0.00     0.149 A 
HETATM    8  C5  UNL     1     -14.902   3.220   4.025  1.00  0.00     0.282 A 
HETATM    9  O1  UNL     1     -14.088   3.611   3.194  1.00  0.00    -0.265 OA
HETATM   10  N3  UNL     1     -15.310   1.891   4.170  1.00  0.00    -0.269 N 
HETATM   11  C6  UNL     1     -16.243   1.414   5.115  1.00  0.00     0.332 A 
HETATM   12  O2  UNL     1     -16.539   0.216   5.165  1.00  0.00    -0.246 OA
HETATM   13  N4  UNL     1     -16.808   2.351   5.981  1.00  0.00    -0.287 N 
HETATM   14  C7  UNL     1     -17.776   1.942   6.982  1.00  0.00     0.163 C 
HETATM   15  C8  UNL     1     -14.736   0.900   3.281  1.00  0.00     0.164 C 
ENDROOT
TORSDOF 0
ENDMDL
MODEL 7
REMARK VINA RESULT:      -5.0     13.148     15.456
REMARK  0 active torsions:
REMARK  status: ('A' for Active; 'I' for Inactive)
ROOT
HETATM    1  C1  UNL     1     -14.165  16.181  -4.449  1.00  0.00     0.157 C 
HETATM    2  N1  UNL     1     -15.243  15.499  -5.118  1.00  0.00    -0.340 N 
HETATM    3  C2  UNL     1     -16.031  16.011  -6.115  1.00  0.00     0.184 A 
HETATM    4  N2  UNL     1     -16.932  15.139  -6.520  1.00  0.00    -0.336 N 
ATOM      5  H2  UNL     1     -17.638  15.261  -7.245  1.00  0.00     0.168 HD
HETATM    6  C3  UNL     1     -16.706  14.037  -5.753  1.00  0.00     0.145 A 
HETATM    7  C4  UNL     1     -15.676  14.225  -4.881  1.00  0.00     0.149 A 
HETATM    8  C5  UNL     1     -15.236  13.230  -3.967  1.00  0.00     0.282 A 
HETATM    9  O1  UNL     1     -14.307  13.411  -3.186  1.00  0.00    -0.265 OA
HETATM   10  N3  UNL     1     -15.973  12.046  -4.062  1.00  0.00    -0.269 N 
HETATM   11  C6  UNL     1     -17.044  11.812  -4.949  1.00  0.00     0.332 A 
HETATM   12  O2  UNL     1     -17.636  10.728  -4.957  1.00  0.00    -0.246 OA
HETATM   13  N4  UNL     1     -17.400  12.853  -5.808  1.00  0.00    -0.287 N 
HETATM   14  C7  UNL     1     -18.491  12.693  -6.751  1.00  0.00     0.163 C 
HETATM   15  C8  UNL     1     -15.622  10.951  -3.179  1.00  0.00     0.164 C 
ENDROOT
TORSDOF 0
ENDMDL
MODEL 8
REMARK VINA RESULT:      -4.9     12.677     14.547
REMARK  0 active torsions:
REMARK  status: ('A' for Active; 'I' for Inactive)
ROOT
HETATM    1  C1  UNL     1     -18.588  12.877  -6.544  1.00  0.00     0.157 C 
HETATM    2  N1  UNL     1     -17.612  12.347  -5.626  1.00  0.00    -0.340 N 
HETATM    3  C2  UNL     1     -17.550  11.057  -5.167  1.00  0.00     0.184 A 
HETATM    4  N2  UNL     1     -16.540  10.885  -4.338  1.00  0.00    -0.336 N 
ATOM      5  H2  UNL     1     -16.267  10.029  -3.855  1.00  0.00     0.168 HD
HETATM    6  C3  UNL     1     -15.943  12.107  -4.271  1.00  0.00     0.145 A 
HETATM    7  C4  UNL     1     -16.578  13.027  -5.050  1.00  0.00     0.149 A 
HETATM    8  C5  UNL     1     -16.157  14.380  -5.159  1.00  0.00     0.282 A 
HETATM    9  O1  UNL     1     -16.735  15.201  -5.864  1.00  0.00    -0.265 OA
HETATM   10  N3  UNL     1     -15.027  14.658  -4.383  1.00  0.00    -0.269 N 
HETATM   11  C6  UNL     1     -14.344  13.735  -3.564  1.00  0.00     0.332 A 
HETATM   12  O2  UNL     1     -13.352  14.079  -2.912  1.00  0.00    -0.246 OA
HETATM   13  N4  UNL     1     -14.836  12.430  -3.525  1.00  0.00    -0.287 N 
HETATM   14  C7  UNL     1     -14.190  11.420  -2.707  1.00  0.00     0.163 C 
HETATM   15  C8  UNL     1     -14.498  16.008  -4.407  1.00  0.00     0.164 C 
ENDROOT
TORSDOF 0
ENDMDL
MODEL 9
REMARK VINA RESULT:      -4.8      2.065      2.736
REMARK  0 active torsions:
REMARK  status: ('A' for Active; 'I' for Inactive)
ROOT
HETATM    1  C1  UNL     1     -12.742  -1.739   3.219  1.00  0.00     0.157 C 
HETATM    2  N1  UNL     1     -13.927  -1.284   3.901  1.00  0.00    -0.340 N 
HETATM    3  C2  UNL     1     -14.851  -2.075   4.534  1.00  0.00     0.184 A 
HETATM    4  N2  UNL     1     -15.822  -1.358   5.063  1.00  0.00    -0.336 N 
ATOM      5  H2  UNL     1     -16.632  -1.692   5.585  1.00  0.00     0.168 HD
HETATM    6  C3  UNL     1     -15.502  -0.071   4.754  1.00  0.00     0.145 A 
HETATM    7  C4  UNL     1     -14.344   0.008   4.041  1.00  0.00     0.149 A 
HETATM    8  C5  UNL     1     -13.787   1.237   3.593  1.00  0.00     0.282 A 
HETATM    9  O1  UNL     1     -12.742   1.298   2.952  1.00  0.00    -0.265 OA
HETATM   10  N3  UNL     1     -14.555   2.345   3.964  1.00  0.00    -0.269 N 
HETATM   11  C6  UNL     1     -15.757   2.304   4.700  1.00  0.00     0.332 A 
HETATM   12  O2  UNL     1     -16.366   3.342   4.979  1.00  0.00    -0.246 OA
HETATM   13  N4  UNL     1     -16.222   1.048   5.094  1.00  0.00    -0.287 N 
HETATM   14  C7  UNL     1     -17.451   0.919   5.855  1.00  0.00     0.163 C 
HETATM   15  C8  UNL     1     -14.092   3.660   3.566  1.00  0.00     0.164 C 
ENDROOT
TORSDOF 0
ENDMDL
