MODEL 1
REMARK VINA RESULT:      -2.5      0.000      0.000
REMARK  1 active torsions:
REMARK  status: ('A' for Active; 'I' for Inactive)
REMARK    1  A    between atoms: C2_2  and  O1_3 
ROOT
HETATM    1  C1  UNL     1     -26.058   9.739  -5.075  1.00  0.00     0.033 C 
HETATM    2  C2  UNL     1     -27.489  10.204  -4.904  1.00  0.00     0.159 C 
ENDROOT
BRANCH   2   3
HETATM    3  O1  UNL     1     -27.625  10.917  -3.684  1.00  0.00    -0.401 OA
HETATM    4  H6  UNL     1     -28.178  10.381  -3.090  1.00  0.00     0.209 HD
ENDBRANCH   2   3
TORSDOF 1
ENDMDL
MODEL 2
REMARK VINA RESULT:      -2.3     16.673     16.869
REMARK  1 active torsions:
REMARK  status: ('A' for Active; 'I' for Inactive)
REMARK    1  A    between atoms: C2_2  and  O1_3 
ROOT
HETATM    1  C1  UNL     1     -13.390  11.058   3.583  1.00  0.00     0.033 C 
HETATM    2  C2  UNL     1     -12.331  11.782   2.778  1.00  0.00     0.159 C 
ENDROOT
BRANCH   2   3
HETATM    3  O1  UNL     1     -11.105  11.800   3.496  1.00  0.00    -0.401 OA
HETATM    4  H6  UNL     1     -10.810  12.725   3.550  1.00  0.00     0.209 HD
ENDBRANCH   2   3
TORSDOF 1
ENDMDL
MODEL 3
REMARK VINA RESULT:      -2.2      2.022      2.364
REMARK  1 active torsions:
REMARK  status: ('A' for Active; 'I' for Inactive)
REMARK    1  A    between atoms: C2_2  and  O1_3 
ROOT
HETATM    1  C1  UNL     1     -27.088  10.192  -5.014  1.00  0.00     0.033 C 
HETATM    2  C2  UNL     1     -25.762   9.470  -5.128  1.00  0.00     0.159 C 
ENDROOT
BRANCH   2   3
HETATM    3  O1  UNL     1     -25.917   8.110  -4.746  1.00  0.00    -0.401 OA
HETATM    4  H6  UNL     1     -25.619   8.028  -3.824  1.00  0.00     0.209 HD
ENDBRANCH   2   3
TORSDOF 1
ENDMDL
MODEL 4
REMARK VINA RESULT:      -2.2     10.055     10.474
REMARK  1 active torsions:
REMARK  status: ('A' for Active; 'I' for Inactive)
REMARK    1  A    between atoms: C2_2  and  O1_3 
ROOT
HETATM    1  C1  UNL     1     -17.344  10.901  -4.888  1.00  0.00     0.033 C 
HETATM    2  C2  UNL     1     -16.163  10.571  -3.998  1.00  0.00     0.159 C 
ENDROOT
BRANCH   2   3
HETATM    3  O1  UNL     1     -16.622  10.175  -2.713  1.00  0.00    -0.401 OA
HETATM    4  H6  UNL     1     -17.298  10.815  -2.433  1.00  0.00     0.209 HD
ENDBRANCH   2   3
TORSDOF 1
ENDMDL
MODEL 5
REMARK VINA RESULT:      -1.9     14.371     14.632
REMARK  1 active torsions:
REMARK  status: ('A' for Active; 'I' for Inactive)
REMARK    1  A    between atoms: C2_2  and  O1_3 
ROOT
HETATM    1  C1  UNL     1     -13.904   9.817   3.613  1.00  0.00     0.033 C 
HETATM    2  C2  UNL     1     -14.186   8.748   2.578  1.00  0.00     0.159 C 
ENDROOT
BRANCH   2   3
HETATM    3  O1  UNL     1     -15.472   8.950   2.010  1.00  0.00    -0.401 OA
HETATM    4  H6  UNL     1     -16.005   9.438   2.660  1.00  0.00     0.209 HD
ENDBRANCH   2   3
TORSDOF 1
ENDMDL
MODEL 6
REMARK VINA RESULT:      -1.9     16.665     16.959
REMARK  1 active torsions:
REMARK  status: ('A' for Active; 'I' for Inactive)
REMARK    1  A    between atoms: C2_2  and  O1_3 
ROOT
HETATM    1  C1  UNL     1     -14.974   6.282   4.897  1.00  0.00     0.033 C 
HETATM    2  C2  UNL     1     -13.698   7.094   4.986  1.00  0.00     0.159 C 
ENDROOT
BRANCH   2   3
HETATM    3  O1  UNL     1     -12.679   6.327   5.612  1.00  0.00    -0.401 OA
HETATM    4  H6  UNL     1     -11.843   6.522   5.156  1.00  0.00     0.209 HD
ENDBRANCH   2   3
TORSDOF 1
ENDMDL
MODEL 7
REMARK VINA RESULT:      -1.8     12.242     12.663
REMARK  1 active torsions:
REMARK  status: ('A' for Active; 'I' for Inactive)
REMARK    1  A    between atoms: C2_2  and  O1_3 
ROOT
HETATM    1  C1  UNL     1     -13.799  12.474  -1.596  1.00  0.00     0.033 C 
HETATM    2  C2  UNL     1     -14.863  11.883  -2.498  1.00  0.00     0.159 C 
ENDROOT
BRANCH   2   3
HETATM    3  O1  UNL     1     -15.823  11.182  -1.720  1.00  0.00    -0.401 OA
HETATM    4  H6  UNL     1     -16.699  11.543  -1.940  1.00  0.00     0.209 HD
ENDBRANCH   2   3
TORSDOF 1
ENDMDL
MODEL 8
REMARK VINA RESULT:      -1.8     15.440     15.571
REMARK  1 active torsions:
REMARK  status: ('A' for Active; 'I' for Inactive)
REMARK    1  A    between atoms: C2_2  and  O1_3 
ROOT
HETATM    1  C1  UNL     1     -12.906  11.788   3.104  1.00  0.00     0.033 C 
HETATM    2  C2  UNL     1     -13.877  11.016   3.973  1.00  0.00     0.159 C 
ENDROOT
BRANCH   2   3
HETATM    3  O1  UNL     1     -14.567  10.053   3.190  1.00  0.00    -0.401 OA
HETATM    4  H6  UNL     1     -14.580  10.376   2.273  1.00  0.00     0.209 HD
ENDBRANCH   2   3
TORSDOF 1
ENDMDL
MODEL 9
REMARK VINA RESULT:      -1.8      9.443      9.757
REMARK  1 active torsions:
REMARK  status: ('A' for Active; 'I' for Inactive)
REMARK    1  A    between atoms: C2_2  and  O1_3 
ROOT
HETATM    1  C1  UNL     1     -17.052  12.616  -5.306  1.00  0.00     0.033 C 
HETATM    2  C2  UNL     1     -17.775  11.319  -5.603  1.00  0.00     0.159 C 
ENDROOT
BRANCH   2   3
HETATM    3  O1  UNL     1     -17.666  10.439  -4.494  1.00  0.00    -0.401 OA
HETATM    4  H6  UNL     1     -18.025  10.900  -3.717  1.00  0.00     0.209 HD
ENDBRANCH   2   3
TORSDOF 1
ENDMDL
