MODEL 1
REMARK VINA RESULT:      -5.7      0.000      0.000
REMARK  8 active torsions:
REMARK  status: ('A' for Active; 'I' for Inactive)
REMARK    1  A    between atoms: C2_2  and  N1_4 
REMARK    2  A    between atoms: N1_4  and  C4_5 
REMARK    3  A    between atoms: C4_5  and  C5_6 
REMARK    4  A    between atoms: C5_6  and  C6_7 
REMARK    5  A    between atoms: C5_6  and  O3_16 
REMARK    6  A    between atoms: C8_9  and  C12_14 
REMARK    7  A    between atoms: C9_10  and  O1_13 
REMARK    8  A    between atoms: C12_14  and  O2_15 
ROOT
HETATM    1  C6  UNL     1     -16.628  11.573  -4.666  1.00  0.00    -0.027 A 
HETATM    2  C7  UNL     1     -15.907  12.767  -4.487  1.00  0.00     0.022 A 
HETATM    3  C8  UNL     1     -16.228  13.931  -5.206  1.00  0.00    -0.001 A 
HETATM    4  C9  UNL     1     -17.298  13.879  -6.106  1.00  0.00     0.074 A 
HETATM    5  C10 UNL     1     -18.029  12.710  -6.294  1.00  0.00     0.038 A 
HETATM    6  C11 UNL     1     -17.696  11.563  -5.574  1.00  0.00     0.012 A 
ENDROOT
BRANCH   1   7
HETATM    7  C5  UNL     1     -16.263  10.346  -3.856  1.00  0.00     0.179 C 
BRANCH   7   8
HETATM    8  C4  UNL     1     -14.799   9.908  -4.117  1.00  0.00     0.306 C 
BRANCH   8   9
HETATM    9  N1  UNL     1     -14.700   9.121  -5.364  1.00  0.00     0.090 N 
HETATM   10  H8  UNL     1     -14.210   8.255  -5.131  1.00  0.00     0.316 HD
BRANCH   9  11
HETATM   11  C2  UNL     1     -13.951   9.777  -6.448  1.00  0.00     0.212 C 
HETATM   12  C1  UNL     1     -13.091  10.950  -5.972  1.00  0.00     0.042 C 
HETATM   13  C3  UNL     1     -14.857  10.190  -7.609  1.00  0.00     0.042 C 
ENDBRANCH   9  11
ENDBRANCH   8   9
ENDBRANCH   7   8
BRANCH   7  14
HETATM   14  O3  UNL     1     -16.445  10.594  -2.457  1.00  0.00    -0.389 OA
HETATM   15  H19 UNL     1     -16.300   9.726  -2.040  1.00  0.00     0.210 HD
ENDBRANCH   7  14
ENDBRANCH   1   7
BRANCH   3  16
HETATM   16  C12 UNL     1     -15.453  15.201  -4.963  1.00  0.00     0.205 C 
BRANCH  16  17
HETATM   17  O2  UNL     1     -16.314  16.311  -4.744  1.00  0.00    -0.396 OA
HETATM   18  H18 UNL     1     -15.849  16.873  -4.094  1.00  0.00     0.209 HD
ENDBRANCH  16  17
ENDBRANCH   3  16
BRANCH   4  19
HETATM   19  O1  UNL     1     -17.609  15.007  -6.817  1.00  0.00    -0.360 OA
HETATM   20  H15 UNL     1     -18.262  15.517  -6.308  1.00  0.00     0.217 HD
ENDBRANCH   4  19
TORSDOF 8
ENDMDL
MODEL 2
REMARK VINA RESULT:      -5.4      1.205      1.571
REMARK  8 active torsions:
REMARK  status: ('A' for Active; 'I' for Inactive)
REMARK    1  A    between atoms: C2_2  and  N1_4 
REMARK    2  A    between atoms: N1_4  and  C4_5 
REMARK    3  A    between atoms: C4_5  and  C5_6 
REMARK    4  A    between atoms: C5_6  and  C6_7 
REMARK    5  A    between atoms: C5_6  and  O3_16 
REMARK    6  A    between atoms: C8_9  and  C12_14 
REMARK    7  A    between atoms: C9_10  and  O1_13 
REMARK    8  A    between atoms: C12_14  and  O2_15 
ROOT
HETATM    1  C6  UNL     1     -16.676  11.608  -4.690  1.00  0.00    -0.027 A 
HETATM    2  C7  UNL     1     -15.951  12.795  -4.479  1.00  0.00     0.022 A 
HETATM    3  C8  UNL     1     -16.236  13.966  -5.201  1.00  0.00    -0.001 A 
HETATM    4  C9  UNL     1     -17.274  13.929  -6.140  1.00  0.00     0.074 A 
HETATM    5  C10 UNL     1     -18.009  12.767  -6.361  1.00  0.00     0.038 A 
HETATM    6  C11 UNL     1     -17.711  11.613  -5.635  1.00  0.00     0.012 A 
ENDROOT
BRANCH   1   7
HETATM    7  C5  UNL     1     -16.351  10.374  -3.875  1.00  0.00     0.179 C 
BRANCH   7   8
HETATM    8  C4  UNL     1     -14.971   9.785  -4.262  1.00  0.00     0.306 C 
BRANCH   8   9
HETATM    9  N1  UNL     1     -13.982  10.015  -3.189  1.00  0.00     0.090 N 
HETATM   10  H8  UNL     1     -14.462  10.526  -2.446  1.00  0.00     0.316 HD
BRANCH   9  11
HETATM   11  C2  UNL     1     -12.812  10.812  -3.593  1.00  0.00     0.212 C 
HETATM   12  C1  UNL     1     -12.688  12.138  -2.840  1.00  0.00     0.042 C 
HETATM   13  C3  UNL     1     -12.752  11.026  -5.107  1.00  0.00     0.042 C 
ENDBRANCH   9  11
ENDBRANCH   8   9
ENDBRANCH   7   8
BRANCH   7  14
HETATM   14  O3  UNL     1     -16.366  10.678  -2.475  1.00  0.00    -0.389 OA
HETATM   15  H19 UNL     1     -17.165  11.221  -2.357  1.00  0.00     0.210 HD
ENDBRANCH   7  14
ENDBRANCH   1   7
BRANCH   3  16
HETATM   16  C12 UNL     1     -15.460  15.228  -4.924  1.00  0.00     0.205 C 
BRANCH  16  17
HETATM   17  O2  UNL     1     -16.319  16.333  -4.678  1.00  0.00    -0.396 OA
HETATM   18  H18 UNL     1     -16.562  16.672  -5.562  1.00  0.00     0.209 HD
ENDBRANCH  16  17
ENDBRANCH   3  16
BRANCH   4  19
HETATM   19  O1  UNL     1     -17.549  15.063  -6.855  1.00  0.00    -0.360 OA
HETATM   20  H15 UNL     1     -17.098  15.811  -6.426  1.00  0.00     0.217 HD
ENDBRANCH   4  19
TORSDOF 8
ENDMDL
MODEL 3
REMARK VINA RESULT:      -5.4      9.037     11.058
REMARK  8 active torsions:
REMARK  status: ('A' for Active; 'I' for Inactive)
REMARK    1  A    between atoms: C2_2  and  N1_4 
REMARK    2  A    between atoms: N1_4  and  C4_5 
REMARK    3  A    between atoms: C4_5  and  C5_6 
REMARK    4  A    between atoms: C5_6  and  C6_7 
REMARK    5  A    between atoms: C5_6  and  O3_16 
REMARK    6  A    between atoms: C8_9  and  C12_14 
REMARK    7  A    between atoms: C9_10  and  O1_13 
REMARK    8  A    between atoms: C12_14  and  O2_15 
ROOT
HETATM    1  C6  UNL     1     -13.315   7.892   3.915  1.00  0.00    -0.027 A 
HETATM    2  C7  UNL     1     -13.126   9.281   4.033  1.00  0.00     0.022 A 
HETATM    3  C8  UNL     1     -12.614  10.043   2.970  1.00  0.00    -0.001 A 
HETATM    4  C9  UNL     1     -12.300   9.386   1.775  1.00  0.00     0.074 A 
HETATM    5  C10 UNL     1     -12.484   8.013   1.634  1.00  0.00     0.038 A 
HETATM    6  C11 UNL     1     -12.993   7.271   2.701  1.00  0.00     0.012 A 
ENDROOT
BRANCH   1   7
HETATM    7  C5  UNL     1     -13.891   7.111   5.078  1.00  0.00     0.179 C 
BRANCH   7   8
HETATM    8  C4  UNL     1     -15.165   6.332   4.665  1.00  0.00     0.306 C 
BRANCH   8   9
HETATM    9  N1  UNL     1     -15.078   4.919   5.088  1.00  0.00     0.090 N 
HETATM   10  H8  UNL     1     -14.661   4.401   4.311  1.00  0.00     0.316 HD
BRANCH   9  11
HETATM   11  C2  UNL     1     -16.372   4.289   5.398  1.00  0.00     0.212 C 
HETATM   12  C1  UNL     1     -16.884   4.607   6.804  1.00  0.00     0.042 C 
HETATM   13  C3  UNL     1     -16.357   2.781   5.140  1.00  0.00     0.042 C 
ENDBRANCH   9  11
ENDBRANCH   8   9
ENDBRANCH   7   8
BRANCH   7  14
HETATM   14  O3  UNL     1     -12.919   6.197   5.600  1.00  0.00    -0.389 OA
HETATM   15  H19 UNL     1     -12.722   5.606   4.853  1.00  0.00     0.210 HD
ENDBRANCH   7  14
ENDBRANCH   1   7
BRANCH   3  16
HETATM   16  C12 UNL     1     -12.456  11.535   3.122  1.00  0.00     0.205 C 
BRANCH  16  17
HETATM   17  O2  UNL     1     -11.107  11.899   3.384  1.00  0.00    -0.396 OA
HETATM   18  H18 UNL     1     -10.566  11.207   2.957  1.00  0.00     0.209 HD
ENDBRANCH  16  17
ENDBRANCH   3  16
BRANCH   4  19
HETATM   19  O1  UNL     1     -11.790  10.121   0.739  1.00  0.00    -0.360 OA
HETATM   20  H15 UNL     1     -11.262  10.847   1.112  1.00  0.00     0.217 HD
ENDBRANCH   4  19
TORSDOF 8
ENDMDL
MODEL 4
REMARK VINA RESULT:      -5.3     12.430     14.493
REMARK  8 active torsions:
REMARK  status: ('A' for Active; 'I' for Inactive)
REMARK    1  A    between atoms: C2_2  and  N1_4 
REMARK    2  A    between atoms: N1_4  and  C4_5 
REMARK    3  A    between atoms: C4_5  and  C5_6 
REMARK    4  A    between atoms: C5_6  and  C6_7 
REMARK    5  A    between atoms: C5_6  and  O3_16 
REMARK    6  A    between atoms: C8_9  and  C12_14 
REMARK    7  A    between atoms: C9_10  and  O1_13 
REMARK    8  A    between atoms: C12_14  and  O2_15 
ROOT
HETATM    1  C6  UNL     1     -17.065   3.118   5.952  1.00  0.00    -0.027 A 
HETATM    2  C7  UNL     1     -16.099   3.223   4.935  1.00  0.00     0.022 A 
HETATM    3  C8  UNL     1     -15.382   4.413   4.727  1.00  0.00    -0.001 A 
HETATM    4  C9  UNL     1     -15.645   5.500   5.567  1.00  0.00     0.074 A 
HETATM    5  C10 UNL     1     -16.593   5.417   6.583  1.00  0.00     0.038 A 
HETATM    6  C11 UNL     1     -17.297   4.228   6.775  1.00  0.00     0.012 A 
ENDROOT
BRANCH   1   7
HETATM    7  C5  UNL     1     -17.801   1.810   6.157  1.00  0.00     0.179 C 
BRANCH   7   8
HETATM    8  C4  UNL     1     -17.365   0.744   5.120  1.00  0.00     0.306 C 
BRANCH   8   9
HETATM    9  N1  UNL     1     -16.654  -0.371   5.778  1.00  0.00     0.090 N 
HETATM   10  H8  UNL     1     -16.629  -0.160   6.778  1.00  0.00     0.316 HD
BRANCH   9  11
HETATM   11  C2  UNL     1     -15.265  -0.564   5.330  1.00  0.00     0.212 C 
HETATM   12  C1  UNL     1     -14.244   0.222   6.155  1.00  0.00     0.042 C 
HETATM   13  C3  UNL     1     -15.097  -0.292   3.834  1.00  0.00     0.042 C 
ENDBRANCH   9  11
ENDBRANCH   8   9
ENDBRANCH   7   8
BRANCH   7  14
HETATM   14  O3  UNL     1     -17.577   1.308   7.480  1.00  0.00    -0.389 OA
HETATM   15  H19 UNL     1     -17.799   2.058   8.060  1.00  0.00     0.210 HD
ENDBRANCH   7  14
ENDBRANCH   1   7
BRANCH   3  16
HETATM   16  C12 UNL     1     -14.331   4.477   3.648  1.00  0.00     0.205 C 
BRANCH  16  17
HETATM   17  O2  UNL     1     -13.498   3.325   3.652  1.00  0.00    -0.396 OA
HETATM   18  H18 UNL     1     -12.980   3.385   4.479  1.00  0.00     0.209 HD
ENDBRANCH  16  17
ENDBRANCH   3  16
BRANCH   4  19
HETATM   19  O1  UNL     1     -14.957   6.666   5.361  1.00  0.00    -0.360 OA
HETATM   20  H15 UNL     1     -15.488   7.399   5.717  1.00  0.00     0.217 HD
ENDBRANCH   4  19
TORSDOF 8
ENDMDL
MODEL 5
REMARK VINA RESULT:      -5.3     11.361     14.175
REMARK  8 active torsions:
REMARK  status: ('A' for Active; 'I' for Inactive)
REMARK    1  A    between atoms: C2_2  and  N1_4 
REMARK    2  A    between atoms: N1_4  and  C4_5 
REMARK    3  A    between atoms: C4_5  and  C5_6 
REMARK    4  A    between atoms: C5_6  and  C6_7 
REMARK    5  A    between atoms: C5_6  and  O3_16 
REMARK    6  A    between atoms: C8_9  and  C12_14 
REMARK    7  A    between atoms: C9_10  and  O1_13 
REMARK    8  A    between atoms: C12_14  and  O2_15 
ROOT
HETATM    1  C6  UNL     1     -15.916   4.200   5.266  1.00  0.00    -0.027 A 
HETATM    2  C7  UNL     1     -16.072   2.857   4.877  1.00  0.00     0.022 A 
HETATM    3  C8  UNL     1     -16.837   1.958   5.638  1.00  0.00    -0.001 A 
HETATM    4  C9  UNL     1     -17.455   2.434   6.801  1.00  0.00     0.074 A 
HETATM    5  C10 UNL     1     -17.319   3.760   7.201  1.00  0.00     0.038 A 
HETATM    6  C11 UNL     1     -16.554   4.639   6.433  1.00  0.00     0.012 A 
ENDROOT
BRANCH   1   7
HETATM    7  C5  UNL     1     -15.100   5.141   4.404  1.00  0.00     0.179 C 
BRANCH   7   8
HETATM    8  C4  UNL     1     -14.853   6.494   5.118  1.00  0.00     0.306 C 
BRANCH   8   9
HETATM    9  N1  UNL     1     -13.444   6.915   4.974  1.00  0.00     0.090 N 
HETATM   10  H8  UNL     1     -13.068   7.027   5.918  1.00  0.00     0.316 HD
BRANCH   9  11
HETATM   11  C2  UNL     1     -13.253   8.191   4.265  1.00  0.00     0.212 C 
HETATM   12  C1  UNL     1     -13.355   9.416   5.176  1.00  0.00     0.042 C 
HETATM   13  C3  UNL     1     -14.176   8.323   3.053  1.00  0.00     0.042 C 
ENDBRANCH   9  11
ENDBRANCH   8   9
ENDBRANCH   7   8
BRANCH   7  14
HETATM   14  O3  UNL     1     -13.844   4.546   4.058  1.00  0.00    -0.389 OA
HETATM   15  H19 UNL     1     -13.260   5.305   3.885  1.00  0.00     0.210 HD
ENDBRANCH   7  14
ENDBRANCH   1   7
BRANCH   3  16
HETATM   16  C12 UNL     1     -17.009   0.535   5.172  1.00  0.00     0.205 C 
BRANCH  16  17
HETATM   17  O2  UNL     1     -16.547  -0.398   6.141  1.00  0.00    -0.396 OA
HETATM   18  H18 UNL     1     -16.956  -0.118   6.983  1.00  0.00     0.209 HD
ENDBRANCH  16  17
ENDBRANCH   3  16
BRANCH   4  19
HETATM   19  O1  UNL     1     -18.193   1.560   7.553  1.00  0.00    -0.360 OA
HETATM   20  H15 UNL     1     -18.972   1.296   7.036  1.00  0.00     0.217 HD
ENDBRANCH   4  19
TORSDOF 8
ENDMDL
MODEL 6
REMARK VINA RESULT:      -5.2      8.574     11.434
REMARK  8 active torsions:
REMARK  status: ('A' for Active; 'I' for Inactive)
REMARK    1  A    between atoms: C2_2  and  N1_4 
REMARK    2  A    between atoms: N1_4  and  C4_5 
REMARK    3  A    between atoms: C4_5  and  C5_6 
REMARK    4  A    between atoms: C5_6  and  C6_7 
REMARK    5  A    between atoms: C5_6  and  O3_16 
REMARK    6  A    between atoms: C8_9  and  C12_14 
REMARK    7  A    between atoms: C9_10  and  O1_13 
REMARK    8  A    between atoms: C12_14  and  O2_15 
ROOT
HETATM    1  C6  UNL     1     -14.358   7.358   3.359  1.00  0.00    -0.027 A 
HETATM    2  C7  UNL     1     -15.287   6.551   4.040  1.00  0.00     0.022 A 
HETATM    3  C8  UNL     1     -15.093   5.166   4.175  1.00  0.00    -0.001 A 
HETATM    4  C9  UNL     1     -13.939   4.601   3.621  1.00  0.00     0.074 A 
HETATM    5  C10 UNL     1     -13.003   5.382   2.948  1.00  0.00     0.038 A 
HETATM    6  C11 UNL     1     -13.212   6.755   2.821  1.00  0.00     0.012 A 
ENDROOT
BRANCH   1   7
HETATM    7  C5  UNL     1     -14.594   8.850   3.254  1.00  0.00     0.179 C 
BRANCH   7   8
HETATM    8  C4  UNL     1     -13.470   9.654   3.956  1.00  0.00     0.306 C 
BRANCH   8   9
HETATM    9  N1  UNL     1     -13.427  11.043   3.456  1.00  0.00     0.090 N 
HETATM   10  H8  UNL     1     -14.187  11.141   2.780  1.00  0.00     0.316 HD
BRANCH   9  11
HETATM   11  C2  UNL     1     -12.175  11.413   2.774  1.00  0.00     0.212 C 
HETATM   12  C1  UNL     1     -12.385  11.916   1.345  1.00  0.00     0.042 C 
HETATM   13  C3  UNL     1     -11.139  10.289   2.819  1.00  0.00     0.042 C 
ENDBRANCH   9  11
ENDBRANCH   8   9
ENDBRANCH   7   8
BRANCH   7  14
HETATM   14  O3  UNL     1     -14.681   9.250   1.881  1.00  0.00    -0.389 OA
HETATM   15  H19 UNL     1     -14.200   8.556   1.398  1.00  0.00     0.210 HD
ENDBRANCH   7  14
ENDBRANCH   1   7
BRANCH   3  16
HETATM   16  C12 UNL     1     -16.095   4.339   4.940  1.00  0.00     0.205 C 
BRANCH  16  17
HETATM   17  O2  UNL     1     -15.477   3.588   5.978  1.00  0.00    -0.396 OA
HETATM   18  H18 UNL     1     -14.950   4.236   6.486  1.00  0.00     0.209 HD
ENDBRANCH  16  17
ENDBRANCH   3  16
BRANCH   4  19
HETATM   19  O1  UNL     1     -13.750   3.250   3.740  1.00  0.00    -0.360 OA
HETATM   20  H15 UNL     1     -14.234   2.943   4.525  1.00  0.00     0.217 HD
ENDBRANCH   4  19
TORSDOF 8
ENDMDL
MODEL 7
REMARK VINA RESULT:      -5.1      2.463      4.590
REMARK  8 active torsions:
REMARK  status: ('A' for Active; 'I' for Inactive)
REMARK    1  A    between atoms: C2_2  and  N1_4 
REMARK    2  A    between atoms: N1_4  and  C4_5 
REMARK    3  A    between atoms: C4_5  and  C5_6 
REMARK    4  A    between atoms: C5_6  and  C6_7 
REMARK    5  A    between atoms: C5_6  and  O3_16 
REMARK    6  A    between atoms: C8_9  and  C12_14 
REMARK    7  A    between atoms: C9_10  and  O1_13 
REMARK    8  A    between atoms: C12_14  and  O2_15 
ROOT
HETATM    1  C6  UNL     1     -16.105  14.205  -5.079  1.00  0.00    -0.027 A 
HETATM    2  C7  UNL     1     -15.687  13.179  -4.212  1.00  0.00     0.022 A 
HETATM    3  C8  UNL     1     -16.245  11.892  -4.278  1.00  0.00    -0.001 A 
HETATM    4  C9  UNL     1     -17.230  11.645  -5.240  1.00  0.00     0.074 A 
HETATM    5  C10 UNL     1     -17.655  12.643  -6.113  1.00  0.00     0.038 A 
HETATM    6  C11 UNL     1     -17.091  13.917  -6.033  1.00  0.00     0.012 A 
ENDROOT
BRANCH   1   7
HETATM    7  C5  UNL     1     -15.463  15.573  -4.990  1.00  0.00     0.179 C 
BRANCH   7   8
HETATM    8  C4  UNL     1     -14.328  15.737  -6.032  1.00  0.00     0.306 C 
BRANCH   8   9
HETATM    9  N1  UNL     1     -13.020  15.896  -5.364  1.00  0.00     0.090 N 
HETATM   10  H8  UNL     1     -12.512  16.623  -5.872  1.00  0.00     0.316 HD
BRANCH   9  11
HETATM   11  C2  UNL     1     -12.179  14.687  -5.362  1.00  0.00     0.212 C 
HETATM   12  C1  UNL     1     -12.625  13.633  -6.377  1.00  0.00     0.042 C 
HETATM   13  C3  UNL     1     -12.035  14.085  -3.963  1.00  0.00     0.042 C 
ENDBRANCH   9  11
ENDBRANCH   8   9
ENDBRANCH   7   8
BRANCH   7  14
HETATM   14  O3  UNL     1     -16.441  16.602  -5.182  1.00  0.00    -0.389 OA
HETATM   15  H19 UNL     1     -17.293  16.133  -5.135  1.00  0.00     0.210 HD
ENDBRANCH   7  14
ENDBRANCH   1   7
BRANCH   3  16
HETATM   16  C12 UNL     1     -15.748  10.810  -3.353  1.00  0.00     0.205 C 
BRANCH  16  17
HETATM   17  O2  UNL     1     -16.085  11.076  -1.998  1.00  0.00    -0.396 OA
HETATM   18  H18 UNL     1     -16.695  11.839  -2.030  1.00  0.00     0.209 HD
ENDBRANCH  16  17
ENDBRANCH   3  16
BRANCH   4  19
HETATM   19  O1  UNL     1     -17.785  10.395  -5.302  1.00  0.00    -0.360 OA
HETATM   20  H15 UNL     1     -18.635  10.462  -5.770  1.00  0.00     0.217 HD
ENDBRANCH   4  19
TORSDOF 8
ENDMDL
MODEL 8
REMARK VINA RESULT:      -5.1      9.086     11.302
REMARK  8 active torsions:
REMARK  status: ('A' for Active; 'I' for Inactive)
REMARK    1  A    between atoms: C2_2  and  N1_4 
REMARK    2  A    between atoms: N1_4  and  C4_5 
REMARK    3  A    between atoms: C4_5  and  C5_6 
REMARK    4  A    between atoms: C5_6  and  C6_7 
REMARK    5  A    between atoms: C5_6  and  O3_16 
REMARK    6  A    between atoms: C8_9  and  C12_14 
REMARK    7  A    between atoms: C9_10  and  O1_13 
REMARK    8  A    between atoms: C12_14  and  O2_15 
ROOT
HETATM    1  C6  UNL     1     -13.464   7.083   3.901  1.00  0.00    -0.027 A 
HETATM    2  C7  UNL     1     -13.047   7.667   2.692  1.00  0.00     0.022 A 
HETATM    3  C8  UNL     1     -12.795   9.045   2.592  1.00  0.00    -0.001 A 
HETATM    4  C9  UNL     1     -12.961   9.833   3.736  1.00  0.00     0.074 A 
HETATM    5  C10 UNL     1     -13.367   9.276   4.946  1.00  0.00     0.038 A 
HETATM    6  C11 UNL     1     -13.615   7.905   5.026  1.00  0.00     0.012 A 
ENDROOT
BRANCH   1   7
HETATM    7  C5  UNL     1     -13.704   5.590   3.971  1.00  0.00     0.179 C 
BRANCH   7   8
HETATM    8  C4  UNL     1     -15.185   5.267   4.293  1.00  0.00     0.306 C 
BRANCH   8   9
HETATM    9  N1  UNL     1     -15.329   3.873   4.763  1.00  0.00     0.090 N 
HETATM   10  H8  UNL     1     -15.689   3.329   3.976  1.00  0.00     0.316 HD
BRANCH   9  11
HETATM   11  C2  UNL     1     -16.263   3.697   5.888  1.00  0.00     0.212 C 
HETATM   12  C1  UNL     1     -17.518   2.904   5.521  1.00  0.00     0.042 C 
HETATM   13  C3  UNL     1     -16.622   5.027   6.555  1.00  0.00     0.042 C 
ENDBRANCH   9  11
ENDBRANCH   8   9
ENDBRANCH   7   8
BRANCH   7  14
HETATM   14  O3  UNL     1     -13.335   4.962   2.737  1.00  0.00    -0.389 OA
HETATM   15  H19 UNL     1     -12.367   4.882   2.790  1.00  0.00     0.210 HD
ENDBRANCH   7  14
ENDBRANCH   1   7
BRANCH   3  16
HETATM   16  C12 UNL     1     -12.317   9.630   1.287  1.00  0.00     0.205 C 
BRANCH  16  17
HETATM   17  O2  UNL     1     -13.304  10.457   0.686  1.00  0.00    -0.396 OA
HETATM   18  H18 UNL     1     -12.814  11.219   0.320  1.00  0.00     0.209 HD
ENDBRANCH  16  17
ENDBRANCH   3  16
BRANCH   4  19
HETATM   19  O1  UNL     1     -12.728  11.179   3.643  1.00  0.00    -0.360 OA
HETATM   20  H15 UNL     1     -13.252  11.627   4.328  1.00  0.00     0.217 HD
ENDBRANCH   4  19
TORSDOF 8
ENDMDL
MODEL 9
REMARK VINA RESULT:      -5.1      2.359      4.497
REMARK  8 active torsions:
REMARK  status: ('A' for Active; 'I' for Inactive)
REMARK    1  A    between atoms: C2_2  and  N1_4 
REMARK    2  A    between atoms: N1_4  and  C4_5 
REMARK    3  A    between atoms: C4_5  and  C5_6 
REMARK    4  A    between atoms: C5_6  and  C6_7 
REMARK    5  A    between atoms: C5_6  and  O3_16 
REMARK    6  A    between atoms: C8_9  and  C12_14 
REMARK    7  A    between atoms: C9_10  and  O1_13 
REMARK    8  A    between atoms: C12_14  and  O2_15 
ROOT
HETATM    1  C6  UNL     1     -16.316  14.095  -5.595  1.00  0.00    -0.027 A 
HETATM    2  C7  UNL     1     -15.708  13.229  -4.667  1.00  0.00     0.022 A 
HETATM    3  C8  UNL     1     -16.240  11.958  -4.395  1.00  0.00    -0.001 A 
HETATM    4  C9  UNL     1     -17.395  11.562  -5.080  1.00  0.00     0.074 A 
HETATM    5  C10 UNL     1     -18.009  12.400  -6.006  1.00  0.00     0.038 A 
HETATM    6  C11 UNL     1     -17.468  13.660  -6.263  1.00  0.00     0.012 A 
ENDROOT
BRANCH   1   7
HETATM    7  C5  UNL     1     -15.698  15.449  -5.875  1.00  0.00     0.179 C 
BRANCH   7   8
HETATM    8  C4  UNL     1     -15.383  15.629  -7.382  1.00  0.00     0.306 C 
BRANCH   8   9
HETATM    9  N1  UNL     1     -14.345  14.674  -7.820  1.00  0.00     0.090 N 
HETATM   10  H8  UNL     1     -13.543  15.227  -8.131  1.00  0.00     0.316 HD
BRANCH   9  11
HETATM   11  C2  UNL     1     -14.743  13.803  -8.938  1.00  0.00     0.212 C 
HETATM   12  C1  UNL     1     -16.042  14.240  -9.619  1.00  0.00     0.042 C 
HETATM   13  C3  UNL     1     -14.799  12.329  -8.532  1.00  0.00     0.042 C 
ENDBRANCH   9  11
ENDBRANCH   8   9
ENDBRANCH   7   8
BRANCH   7  14
HETATM   14  O3  UNL     1     -16.569  16.500  -5.440  1.00  0.00    -0.389 OA
HETATM   15  H19 UNL     1     -16.490  16.488  -4.469  1.00  0.00     0.210 HD
ENDBRANCH   7  14
ENDBRANCH   1   7
BRANCH   3  16
HETATM   16  C12 UNL     1     -15.542  11.045  -3.419  1.00  0.00     0.205 C 
BRANCH  16  17
HETATM   17  O2  UNL     1     -16.409  10.631  -2.371  1.00  0.00    -0.396 OA
HETATM   18  H18 UNL     1     -16.188  11.206  -1.612  1.00  0.00     0.209 HD
ENDBRANCH  16  17
ENDBRANCH   3  16
BRANCH   4  19
HETATM   19  O1  UNL     1     -17.924  10.329  -4.810  1.00  0.00    -0.360 OA
HETATM   20  H15 UNL     1     -18.155   9.906  -5.655  1.00  0.00     0.217 HD
ENDBRANCH   4  19
TORSDOF 8
ENDMDL
