MODEL 1
REMARK VINA RESULT:      -2.8      0.000      0.000
REMARK  1 active torsions:
REMARK  status: ('A' for Active; 'I' for Inactive)
REMARK    1  A    between atoms: C2_2  and  O2_4 
ROOT
HETATM    1  C1  UNL     1     -12.140  10.873   1.636  1.00  0.00     0.125 C 
HETATM    2  C2  UNL     1     -12.222  11.787   2.815  1.00  0.00     0.135 C 
HETATM    3  O1  UNL     1     -13.164  12.499   3.117  1.00  0.00    -0.650 OA
ENDROOT
BRANCH   2   4
HETATM    4  O2  UNL     1     -11.105  11.760   3.563  1.00  0.00    -0.777 OA
HETATM    5  H4  UNL     1     -11.154  12.583   4.093  1.00  0.00     0.167 HD
ENDBRANCH   2   4
TORSDOF 1
ENDMDL
MODEL 2
REMARK VINA RESULT:      -2.8     16.668     17.249
REMARK  1 active torsions:
REMARK  status: ('A' for Active; 'I' for Inactive)
REMARK    1  A    between atoms: C2_2  and  O2_4 
ROOT
HETATM    1  C1  UNL     1     -26.427   9.976  -5.137  1.00  0.00     0.125 C 
HETATM    2  C2  UNL     1     -27.687  10.288  -4.398  1.00  0.00     0.135 C 
HETATM    3  O1  UNL     1     -27.835  11.146  -3.544  1.00  0.00    -0.650 OA
ENDROOT
BRANCH   2   4
HETATM    4  O2  UNL     1     -28.710   9.498  -4.771  1.00  0.00    -0.777 OA
HETATM    5  H4  UNL     1     -29.212  10.046  -5.411  1.00  0.00     0.167 HD
ENDBRANCH   2   4
TORSDOF 1
ENDMDL
MODEL 3
REMARK VINA RESULT:      -2.5      7.418      7.963
REMARK  1 active torsions:
REMARK  status: ('A' for Active; 'I' for Inactive)
REMARK    1  A    between atoms: C2_2  and  O2_4 
ROOT
HETATM    1  C1  UNL     1     -14.978   9.811  -4.249  1.00  0.00     0.125 C 
HETATM    2  C2  UNL     1     -16.321  10.322  -3.839  1.00  0.00     0.135 C 
HETATM    3  O1  UNL     1     -17.213  10.695  -4.582  1.00  0.00    -0.650 OA
ENDROOT
BRANCH   2   4
HETATM    4  O2  UNL     1     -16.477  10.339  -2.504  1.00  0.00    -0.777 OA
HETATM    5  H4  UNL     1     -16.168  11.231  -2.239  1.00  0.00     0.167 HD
ENDBRANCH   2   4
TORSDOF 1
ENDMDL
MODEL 4
REMARK VINA RESULT:      -2.5      5.623      5.662
REMARK  1 active torsions:
REMARK  status: ('A' for Active; 'I' for Inactive)
REMARK    1  A    between atoms: C2_2  and  O2_4 
ROOT
HETATM    1  C1  UNL     1     -15.006   6.367   4.864  1.00  0.00     0.125 C 
HETATM    2  C2  UNL     1     -13.751   7.093   5.222  1.00  0.00     0.135 C 
HETATM    3  O1  UNL     1     -13.610   8.301   5.306  1.00  0.00    -0.650 OA
ENDROOT
BRANCH   2   4
HETATM    4  O2  UNL     1     -12.725   6.257   5.461  1.00  0.00    -0.777 OA
HETATM    5  H4  UNL     1     -12.706   6.176   6.438  1.00  0.00     0.167 HD
ENDBRANCH   2   4
TORSDOF 1
ENDMDL
MODEL 5
REMARK VINA RESULT:      -2.4      3.674      4.099
REMARK  1 active torsions:
REMARK  status: ('A' for Active; 'I' for Inactive)
REMARK    1  A    between atoms: C2_2  and  O2_4 
ROOT
HETATM    1  C1  UNL     1     -13.932   7.655   3.082  1.00  0.00     0.125 C 
HETATM    2  C2  UNL     1     -14.571   8.981   2.827  1.00  0.00     0.135 C 
HETATM    3  O1  UNL     1     -14.245  10.050   3.315  1.00  0.00    -0.650 OA
ENDROOT
BRANCH   2   4
HETATM    4  O2  UNL     1     -15.599   8.897   1.964  1.00  0.00    -0.777 OA
HETATM    5  H4  UNL     1     -16.256   8.337   2.429  1.00  0.00     0.167 HD
ENDBRANCH   2   4
TORSDOF 1
ENDMDL
MODEL 6
REMARK VINA RESULT:      -2.4      6.177      6.783
REMARK  1 active torsions:
REMARK  status: ('A' for Active; 'I' for Inactive)
REMARK    1  A    between atoms: C2_2  and  O2_4 
ROOT
HETATM    1  C1  UNL     1     -15.660  11.956  -4.042  1.00  0.00     0.125 C 
HETATM    2  C2  UNL     1     -15.626  11.329  -2.687  1.00  0.00     0.135 C 
HETATM    3  O1  UNL     1     -14.935  11.674  -1.744  1.00  0.00    -0.650 OA
ENDROOT
BRANCH   2   4
HETATM    4  O2  UNL     1     -16.472  10.289  -2.582  1.00  0.00    -0.777 OA
HETATM    5  H4  UNL     1     -15.891   9.529  -2.368  1.00  0.00     0.167 HD
ENDBRANCH   2   4
TORSDOF 1
ENDMDL
MODEL 7
REMARK VINA RESULT:      -2.4      1.847      1.999
REMARK  1 active torsions:
REMARK  status: ('A' for Active; 'I' for Inactive)
REMARK    1  A    between atoms: C2_2  and  O2_4 
ROOT
HETATM    1  C1  UNL     1     -12.651  11.971   2.802  1.00  0.00     0.125 C 
HETATM    2  C2  UNL     1     -13.274  10.826   3.531  1.00  0.00     0.135 C 
HETATM    3  O1  UNL     1     -14.435  10.462   3.454  1.00  0.00    -0.650 OA
ENDROOT
BRANCH   2   4
HETATM    4  O2  UNL     1     -12.399  10.189   4.329  1.00  0.00    -0.777 OA
HETATM    5  H4  UNL     1     -11.531  10.576   4.088  1.00  0.00     0.167 HD
ENDBRANCH   2   4
TORSDOF 1
ENDMDL
MODEL 8
REMARK VINA RESULT:      -2.4      9.111      9.134
REMARK  1 active torsions:
REMARK  status: ('A' for Active; 'I' for Inactive)
REMARK    1  A    between atoms: C2_2  and  O2_4 
ROOT
HETATM    1  C1  UNL     1     -16.374   4.167   5.060  1.00  0.00     0.125 C 
HETATM    2  C2  UNL     1     -16.270   4.548   6.501  1.00  0.00     0.135 C 
HETATM    3  O1  UNL     1     -16.597   5.613   6.995  1.00  0.00    -0.650 OA
ENDROOT
BRANCH   2   4
HETATM    4  O2  UNL     1     -15.756   3.562   7.256  1.00  0.00    -0.777 OA
HETATM    5  H4  UNL     1     -16.540   3.045   7.540  1.00  0.00     0.167 HD
ENDBRANCH   2   4
TORSDOF 1
ENDMDL
MODEL 9
REMARK VINA RESULT:      -2.4      2.627      2.627
REMARK  1 active torsions:
REMARK  status: ('A' for Active; 'I' for Inactive)
REMARK    1  A    between atoms: C2_2  and  O2_4 
ROOT
HETATM    1  C1  UNL     1     -14.175   9.184   3.160  1.00  0.00     0.125 C 
HETATM    2  C2  UNL     1     -13.784  10.322   4.045  1.00  0.00     0.135 C 
HETATM    3  O1  UNL     1     -14.014  11.503   3.852  1.00  0.00    -0.650 OA
ENDROOT
BRANCH   2   4
HETATM    4  O2  UNL     1     -13.118   9.914   5.140  1.00  0.00    -0.777 OA
HETATM    5  H4  UNL     1     -13.768   9.360   5.621  1.00  0.00     0.167 HD
ENDBRANCH   2   4
TORSDOF 1
ENDMDL
