MODEL 1
REMARK VINA RESULT:      -2.8      0.000      0.000
REMARK  1 active torsions:
REMARK  status: ('A' for Active; 'I' for Inactive)
REMARK    1  A    between atoms: C2_2  and  O1_4 
ROOT
HETATM    1  C1  UNL     1     -12.120  11.318   1.404  1.00  0.00     0.039 C 
HETATM    2  C2  UNL     1     -12.347  11.786   2.833  1.00  0.00     0.110 C 
HETATM    3  C3  UNL     1     -13.338  10.900   3.570  1.00  0.00     0.039 C 
ENDROOT
BRANCH   2   4
HETATM    4  O1  UNL     1     -11.105  11.781   3.530  1.00  0.00    -0.396 OA
HETATM    5  H8  UNL     1     -11.202  11.208   4.310  1.00  0.00     0.209 HD
ENDBRANCH   2   4
TORSDOF 1
ENDMDL
MODEL 2
REMARK VINA RESULT:      -2.6      7.628      8.003
REMARK  1 active torsions:
REMARK  status: ('A' for Active; 'I' for Inactive)
REMARK    1  A    between atoms: C2_2  and  O1_4 
ROOT
HETATM    1  C1  UNL     1     -14.966   9.773  -4.302  1.00  0.00     0.039 C 
HETATM    2  C2  UNL     1     -16.034  10.732  -3.801  1.00  0.00     0.110 C 
HETATM    3  C3  UNL     1     -17.159  10.906  -4.810  1.00  0.00     0.039 C 
ENDROOT
BRANCH   2   4
HETATM    4  O1  UNL     1     -16.574  10.237  -2.580  1.00  0.00    -0.396 OA
HETATM    5  H8  UNL     1     -16.325  10.854  -1.870  1.00  0.00     0.209 HD
ENDBRANCH   2   4
TORSDOF 1
ENDMDL
MODEL 3
REMARK VINA RESULT:      -2.5      7.505      8.108
REMARK  1 active torsions:
REMARK  status: ('A' for Active; 'I' for Inactive)
REMARK    1  A    between atoms: C2_2  and  O1_4 
ROOT
HETATM    1  C1  UNL     1     -17.402  10.878  -4.918  1.00  0.00     0.039 C 
HETATM    2  C2  UNL     1     -16.200  10.724  -3.999  1.00  0.00     0.110 C 
HETATM    3  C3  UNL     1     -15.489  12.049  -3.769  1.00  0.00     0.039 C 
ENDROOT
BRANCH   2   4
HETATM    4  O1  UNL     1     -16.631  10.201  -2.747  1.00  0.00    -0.396 OA
HETATM    5  H8  UNL     1     -16.169   9.358  -2.599  1.00  0.00     0.209 HD
ENDBRANCH   2   4
TORSDOF 1
ENDMDL
MODEL 4
REMARK VINA RESULT:      -2.4      4.898      5.494
REMARK  1 active torsions:
REMARK  status: ('A' for Active; 'I' for Inactive)
REMARK    1  A    between atoms: C2_2  and  O1_4 
ROOT
HETATM    1  C1  UNL     1     -14.085   7.516   3.757  1.00  0.00     0.039 C 
HETATM    2  C2  UNL     1     -14.060   7.060   5.208  1.00  0.00     0.110 C 
HETATM    3  C3  UNL     1     -15.220   6.131   5.531  1.00  0.00     0.039 C 
ENDROOT
BRANCH   2   4
HETATM    4  O1  UNL     1     -12.833   6.384   5.466  1.00  0.00    -0.396 OA
HETATM    5  H8  UNL     1     -13.041   5.551   5.923  1.00  0.00     0.209 HD
ENDBRANCH   2   4
TORSDOF 1
ENDMDL
MODEL 5
REMARK VINA RESULT:      -2.4      3.505      3.913
REMARK  1 active torsions:
REMARK  status: ('A' for Active; 'I' for Inactive)
REMARK    1  A    between atoms: C2_2  and  O1_4 
ROOT
HETATM    1  C1  UNL     1     -13.462   7.704   2.402  1.00  0.00     0.039 C 
HETATM    2  C2  UNL     1     -14.524   8.618   2.994  1.00  0.00     0.110 C 
HETATM    3  C3  UNL     1     -13.920   9.884   3.582  1.00  0.00     0.039 C 
ENDROOT
BRANCH   2   4
HETATM    4  O1  UNL     1     -15.457   8.973   1.977  1.00  0.00    -0.396 OA
HETATM    5  H8  UNL     1     -15.347   8.349   1.239  1.00  0.00     0.209 HD
ENDBRANCH   2   4
TORSDOF 1
ENDMDL
MODEL 6
REMARK VINA RESULT:      -2.3      2.662      3.215
REMARK  1 active torsions:
REMARK  status: ('A' for Active; 'I' for Inactive)
REMARK    1  A    between atoms: C2_2  and  O1_4 
ROOT
HETATM    1  C1  UNL     1     -13.740  10.390   3.741  1.00  0.00     0.039 C 
HETATM    2  C2  UNL     1     -13.731   9.253   2.731  1.00  0.00     0.110 C 
HETATM    3  C3  UNL     1     -15.009   8.431   2.791  1.00  0.00     0.039 C 
ENDROOT
BRANCH   2   4
HETATM    4  O1  UNL     1     -13.582   9.791   1.420  1.00  0.00    -0.396 OA
HETATM    5  H8  UNL     1     -13.408   9.053   0.811  1.00  0.00     0.209 HD
ENDBRANCH   2   4
TORSDOF 1
ENDMDL
MODEL 7
REMARK VINA RESULT:      -2.3      7.486      8.276
REMARK  1 active torsions:
REMARK  status: ('A' for Active; 'I' for Inactive)
REMARK    1  A    between atoms: C2_2  and  O1_4 
ROOT
HETATM    1  C1  UNL     1     -16.784   3.765   5.370  1.00  0.00     0.039 C 
HETATM    2  C2  UNL     1     -15.956   4.970   5.792  1.00  0.00     0.110 C 
HETATM    3  C3  UNL     1     -15.827   5.990   4.672  1.00  0.00     0.039 C 
ENDROOT
BRANCH   2   4
HETATM    4  O1  UNL     1     -16.567   5.587   6.920  1.00  0.00    -0.396 OA
HETATM    5  H8  UNL     1     -17.518   5.381   6.896  1.00  0.00     0.209 HD
ENDBRANCH   2   4
TORSDOF 1
ENDMDL
MODEL 8
REMARK VINA RESULT:      -2.3      1.879      2.046
REMARK  1 active torsions:
REMARK  status: ('A' for Active; 'I' for Inactive)
REMARK    1  A    between atoms: C2_2  and  O1_4 
ROOT
HETATM    1  C1  UNL     1     -12.272  11.823   2.648  1.00  0.00     0.039 C 
HETATM    2  C2  UNL     1     -13.051  10.630   3.181  1.00  0.00     0.110 C 
HETATM    3  C3  UNL     1     -14.132  11.052   4.163  1.00  0.00     0.039 C 
ENDROOT
BRANCH   2   4
HETATM    4  O1  UNL     1     -13.652   9.938   2.091  1.00  0.00    -0.396 OA
HETATM    5  H8  UNL     1     -13.954  10.601   1.446  1.00  0.00     0.209 HD
ENDBRANCH   2   4
TORSDOF 1
ENDMDL
MODEL 9
REMARK VINA RESULT:      -2.2      2.417      2.831
REMARK  1 active torsions:
REMARK  status: ('A' for Active; 'I' for Inactive)
REMARK    1  A    between atoms: C2_2  and  O1_4 
ROOT
HETATM    1  C1  UNL     1     -14.088  10.920   4.153  1.00  0.00     0.039 C 
HETATM    2  C2  UNL     1     -13.367   9.660   4.607  1.00  0.00     0.110 C 
HETATM    3  C3  UNL     1     -13.835   8.432   3.843  1.00  0.00     0.039 C 
ENDROOT
BRANCH   2   4
HETATM    4  O1  UNL     1     -11.966   9.826   4.414  1.00  0.00    -0.396 OA
HETATM    5  H8  UNL     1     -11.544   9.856   5.289  1.00  0.00     0.209 HD
ENDBRANCH   2   4
TORSDOF 1
ENDMDL
