MODEL 1
REMARK VINA RESULT:      -4.2      0.000      0.000
REMARK  0 active torsions:
REMARK  status: ('A' for Active; 'I' for Inactive)
ROOT
HETATM    1  C1  UNL     1     -17.744   2.820   7.848  1.00  0.00     0.048 C 
HETATM    2  C2  UNL     1     -17.008   3.577   6.782  1.00  0.00    -0.062 A 
HETATM    3  C3  UNL     1     -16.918   4.974   6.838  1.00  0.00     0.007 A 
HETATM    4  C4  UNL     1     -16.261   5.681   5.830  1.00  0.00     0.001 A 
HETATM    5  C5  UNL     1     -15.699   4.998   4.751  1.00  0.00     0.000 A 
HETATM    6  C6  UNL     1     -15.796   3.610   4.680  1.00  0.00     0.001 A 
HETATM    7  C7  UNL     1     -16.453   2.903   5.688  1.00  0.00     0.007 A 
ENDROOT
TORSDOF 0
ENDMDL
MODEL 2
REMARK VINA RESULT:      -4.1      0.757      3.370
REMARK  0 active torsions:
REMARK  status: ('A' for Active; 'I' for Inactive)
ROOT
HETATM    1  C1  UNL     1     -15.000   6.424   4.254  1.00  0.00     0.048 C 
HETATM    2  C2  UNL     1     -15.756   5.389   5.033  1.00  0.00    -0.062 A 
HETATM    3  C3  UNL     1     -15.910   4.092   4.526  1.00  0.00     0.007 A 
HETATM    4  C4  UNL     1     -16.641   3.138   5.236  1.00  0.00     0.001 A 
HETATM    5  C5  UNL     1     -17.234   3.474   6.452  1.00  0.00     0.000 A 
HETATM    6  C6  UNL     1     -17.098   4.766   6.957  1.00  0.00     0.001 A 
HETATM    7  C7  UNL     1     -16.368   5.721   6.248  1.00  0.00     0.007 A 
ENDROOT
TORSDOF 0
ENDMDL
MODEL 3
REMARK VINA RESULT:      -3.9      0.769      2.595
REMARK  0 active torsions:
REMARK  status: ('A' for Active; 'I' for Inactive)
ROOT
HETATM    1  C1  UNL     1     -15.354   2.139   4.216  1.00  0.00     0.048 C 
HETATM    2  C2  UNL     1     -15.846   3.270   5.071  1.00  0.00    -0.062 A 
HETATM    3  C3  UNL     1     -16.590   3.012   6.229  1.00  0.00     0.007 A 
HETATM    4  C4  UNL     1     -17.075   4.064   7.007  1.00  0.00     0.001 A 
HETATM    5  C5  UNL     1     -16.829   5.383   6.628  1.00  0.00     0.000 A 
HETATM    6  C6  UNL     1     -16.102   5.650   5.470  1.00  0.00     0.001 A 
HETATM    7  C7  UNL     1     -15.617   4.598   4.691  1.00  0.00     0.007 A 
ENDROOT
TORSDOF 0
ENDMDL
MODEL 4
REMARK VINA RESULT:      -3.8      2.104      3.773
REMARK  0 active torsions:
REMARK  status: ('A' for Active; 'I' for Inactive)
ROOT
HETATM    1  C1  UNL     1     -14.888   0.305   3.455  1.00  0.00     0.048 C 
HETATM    2  C2  UNL     1     -15.781   1.229   4.230  1.00  0.00    -0.062 A 
HETATM    3  C3  UNL     1     -17.037   0.795   4.673  1.00  0.00     0.007 A 
HETATM    4  C4  UNL     1     -17.881   1.663   5.366  1.00  0.00     0.001 A 
HETATM    5  C5  UNL     1     -17.482   2.977   5.611  1.00  0.00     0.000 A 
HETATM    6  C6  UNL     1     -16.241   3.422   5.162  1.00  0.00     0.001 A 
HETATM    7  C7  UNL     1     -15.396   2.553   4.469  1.00  0.00     0.007 A 
ENDROOT
TORSDOF 0
ENDMDL
MODEL 5
REMARK VINA RESULT:      -3.8     12.523     14.021
REMARK  0 active torsions:
REMARK  status: ('A' for Active; 'I' for Inactive)
ROOT
HETATM    1  C1  UNL     1     -16.288  10.348  -3.778  1.00  0.00     0.048 C 
HETATM    2  C2  UNL     1     -16.720  11.453  -4.696  1.00  0.00    -0.062 A 
HETATM    3  C3  UNL     1     -16.082  12.700  -4.655  1.00  0.00     0.007 A 
HETATM    4  C4  UNL     1     -16.504  13.738  -5.487  1.00  0.00     0.001 A 
HETATM    5  C5  UNL     1     -17.575  13.543  -6.358  1.00  0.00     0.000 A 
HETATM    6  C6  UNL     1     -18.226  12.311  -6.395  1.00  0.00     0.001 A 
HETATM    7  C7  UNL     1     -17.804  11.273  -5.564  1.00  0.00     0.007 A 
ENDROOT
TORSDOF 0
ENDMDL
MODEL 6
REMARK VINA RESULT:      -3.8     12.531     14.095
REMARK  0 active torsions:
REMARK  status: ('A' for Active; 'I' for Inactive)
ROOT
HETATM    1  C1  UNL     1     -16.261  10.337  -3.817  1.00  0.00     0.048 C 
HETATM    2  C2  UNL     1     -16.729  11.470  -4.683  1.00  0.00    -0.062 A 
HETATM    3  C3  UNL     1     -17.802  11.292  -5.565  1.00  0.00     0.007 A 
HETATM    4  C4  UNL     1     -18.217  12.335  -6.393  1.00  0.00     0.001 A 
HETATM    5  C5  UNL     1     -17.556  13.562  -6.355  1.00  0.00     0.000 A 
HETATM    6  C6  UNL     1     -16.478  13.744  -5.491  1.00  0.00     0.001 A 
HETATM    7  C7  UNL     1     -16.063  12.701  -4.662  1.00  0.00     0.007 A 
ENDROOT
TORSDOF 0
ENDMDL
MODEL 7
REMARK VINA RESULT:      -3.7     12.247     13.853
REMARK  0 active torsions:
REMARK  status: ('A' for Active; 'I' for Inactive)
ROOT
HETATM    1  C1  UNL     1     -18.641  12.771  -6.568  1.00  0.00     0.048 C 
HETATM    2  C2  UNL     1     -17.585  12.315  -5.604  1.00  0.00    -0.062 A 
HETATM    3  C3  UNL     1     -17.601  11.007  -5.102  1.00  0.00     0.007 A 
HETATM    4  C4  UNL     1     -16.637  10.592  -4.181  1.00  0.00     0.001 A 
HETATM    5  C5  UNL     1     -15.657  11.484  -3.746  1.00  0.00     0.000 A 
HETATM    6  C6  UNL     1     -15.643  12.790  -4.230  1.00  0.00     0.001 A 
HETATM    7  C7  UNL     1     -16.606  13.206  -5.150  1.00  0.00     0.007 A 
ENDROOT
TORSDOF 0
ENDMDL
MODEL 8
REMARK VINA RESULT:      -3.6     13.443     15.120
REMARK  0 active torsions:
REMARK  status: ('A' for Active; 'I' for Inactive)
ROOT
HETATM    1  C1  UNL     1     -16.341  15.485  -6.086  1.00  0.00     0.048 C 
HETATM    2  C2  UNL     1     -16.741  14.054  -5.872  1.00  0.00    -0.062 A 
HETATM    3  C3  UNL     1     -17.839  13.515  -6.555  1.00  0.00     0.007 A 
HETATM    4  C4  UNL     1     -18.230  12.194  -6.333  1.00  0.00     0.001 A 
HETATM    5  C5  UNL     1     -17.535  11.404  -5.418  1.00  0.00     0.000 A 
HETATM    6  C6  UNL     1     -16.450  11.937  -4.723  1.00  0.00     0.001 A 
HETATM    7  C7  UNL     1     -16.058  13.258  -4.945  1.00  0.00     0.007 A 
ENDROOT
TORSDOF 0
ENDMDL
MODEL 9
REMARK VINA RESULT:      -3.6     13.747     15.274
REMARK  0 active torsions:
REMARK  status: ('A' for Active; 'I' for Inactive)
ROOT
HETATM    1  C1  UNL     1     -17.664  11.355  -5.355  1.00  0.00     0.048 C 
HETATM    2  C2  UNL     1     -17.166  12.752  -5.582  1.00  0.00    -0.062 A 
HETATM    3  C3  UNL     1     -16.207  13.311  -4.728  1.00  0.00     0.007 A 
HETATM    4  C4  UNL     1     -15.768  14.621  -4.920  1.00  0.00     0.001 A 
HETATM    5  C5  UNL     1     -16.291  15.388  -5.960  1.00  0.00     0.000 A 
HETATM    6  C6  UNL     1     -17.255  14.845  -6.807  1.00  0.00     0.001 A 
HETATM    7  C7  UNL     1     -17.695  13.535  -6.616  1.00  0.00     0.007 A 
ENDROOT
TORSDOF 0
ENDMDL
