MODEL 1
REMARK VINA RESULT:      -4.7      0.000      0.000
REMARK  1 active torsions:
REMARK  status: ('A' for Active; 'I' for Inactive)
REMARK    1  A    between atoms: C2_2  and  C3_3 
ROOT
HETATM    1  C3  UNL     1     -17.032   3.148   6.034  1.00  0.00    -0.059 A 
HETATM    2  C4  UNL     1     -17.298   4.169   6.956  1.00  0.00     0.007 A 
HETATM    3  C5  UNL     1     -16.791   5.454   6.754  1.00  0.00     0.001 A 
HETATM    4  C6  UNL     1     -16.020   5.731   5.627  1.00  0.00     0.000 A 
HETATM    5  C7  UNL     1     -15.755   4.725   4.700  1.00  0.00     0.001 A 
HETATM    6  C8  UNL     1     -16.261   3.440   4.900  1.00  0.00     0.007 A 
ENDROOT
BRANCH   1   7
HETATM    7  C2  UNL     1     -17.593   1.765   6.242  1.00  0.00     0.034 C 
HETATM    8  C1  UNL     1     -18.470   1.329   5.078  1.00  0.00     0.010 C 
ENDBRANCH   1   7
TORSDOF 1
ENDMDL
MODEL 2
REMARK VINA RESULT:      -4.6      0.466      1.741
REMARK  1 active torsions:
REMARK  status: ('A' for Active; 'I' for Inactive)
REMARK    1  A    between atoms: C2_2  and  C3_3 
ROOT
HETATM    1  C3  UNL     1     -16.730   3.075   5.638  1.00  0.00    -0.059 A 
HETATM    2  C4  UNL     1     -15.913   3.685   4.677  1.00  0.00     0.007 A 
HETATM    3  C5  UNL     1     -15.602   5.043   4.773  1.00  0.00     0.001 A 
HETATM    4  C6  UNL     1     -16.099   5.800   5.832  1.00  0.00     0.000 A 
HETATM    5  C7  UNL     1     -16.907   5.201   6.797  1.00  0.00     0.001 A 
HETATM    6  C8  UNL     1     -17.219   3.844   6.703  1.00  0.00     0.007 A 
ENDROOT
BRANCH   1   7
HETATM    7  C2  UNL     1     -17.052   1.606   5.545  1.00  0.00     0.034 C 
HETATM    8  C1  UNL     1     -18.503   1.367   5.156  1.00  0.00     0.010 C 
ENDBRANCH   1   7
TORSDOF 1
ENDMDL
MODEL 3
REMARK VINA RESULT:      -4.5      1.192      3.695
REMARK  1 active torsions:
REMARK  status: ('A' for Active; 'I' for Inactive)
REMARK    1  A    between atoms: C2_2  and  C3_3 
ROOT
HETATM    1  C3  UNL     1     -15.837   5.408   5.080  1.00  0.00    -0.059 A 
HETATM    2  C4  UNL     1     -16.475   5.601   6.313  1.00  0.00     0.007 A 
HETATM    3  C5  UNL     1     -17.095   4.533   6.962  1.00  0.00     0.001 A 
HETATM    4  C6  UNL     1     -17.078   3.262   6.390  1.00  0.00     0.000 A 
HETATM    5  C7  UNL     1     -16.441   3.058   5.168  1.00  0.00     0.001 A 
HETATM    6  C8  UNL     1     -15.819   4.125   4.517  1.00  0.00     0.007 A 
ENDROOT
BRANCH   1   7
HETATM    7  C2  UNL     1     -15.152   6.557   4.386  1.00  0.00     0.034 C 
HETATM    8  C1  UNL     1     -13.938   7.045   5.162  1.00  0.00     0.010 C 
ENDBRANCH   1   7
TORSDOF 1
ENDMDL
MODEL 4
REMARK VINA RESULT:      -4.5      1.215      4.036
REMARK  1 active torsions:
REMARK  status: ('A' for Active; 'I' for Inactive)
REMARK    1  A    between atoms: C2_2  and  C3_3 
ROOT
HETATM    1  C3  UNL     1     -15.837   5.413   5.073  1.00  0.00    -0.059 A 
HETATM    2  C4  UNL     1     -15.997   4.129   4.534  1.00  0.00     0.007 A 
HETATM    3  C5  UNL     1     -16.718   3.156   5.230  1.00  0.00     0.001 A 
HETATM    4  C6  UNL     1     -17.288   3.458   6.465  1.00  0.00     0.000 A 
HETATM    5  C7  UNL     1     -17.139   4.734   7.006  1.00  0.00     0.001 A 
HETATM    6  C8  UNL     1     -16.420   5.708   6.312  1.00  0.00     0.007 A 
ENDROOT
BRANCH   1   7
HETATM    7  C2  UNL     1     -15.075   6.469   4.315  1.00  0.00     0.034 C 
HETATM    8  C1  UNL     1     -14.029   7.148   5.186  1.00  0.00     0.010 C 
ENDBRANCH   1   7
TORSDOF 1
ENDMDL
MODEL 5
REMARK VINA RESULT:      -4.4      1.221      3.838
REMARK  1 active torsions:
REMARK  status: ('A' for Active; 'I' for Inactive)
REMARK    1  A    between atoms: C2_2  and  C3_3 
ROOT
HETATM    1  C3  UNL     1     -16.405   3.434   5.096  1.00  0.00    -0.059 A 
HETATM    2  C4  UNL     1     -15.426   2.627   4.502  1.00  0.00     0.007 A 
HETATM    3  C5  UNL     1     -15.652   1.262   4.318  1.00  0.00     0.001 A 
HETATM    4  C6  UNL     1     -16.858   0.692   4.721  1.00  0.00     0.000 A 
HETATM    5  C7  UNL     1     -17.841   1.488   5.307  1.00  0.00     0.001 A 
HETATM    6  C8  UNL     1     -17.618   2.853   5.491  1.00  0.00     0.007 A 
ENDROOT
BRANCH   1   7
HETATM    7  C2  UNL     1     -16.170   4.911   5.279  1.00  0.00     0.034 C 
HETATM    8  C1  UNL     1     -16.651   5.398   6.637  1.00  0.00     0.010 C 
ENDBRANCH   1   7
TORSDOF 1
ENDMDL
MODEL 6
REMARK VINA RESULT:      -4.2      2.786      4.344
REMARK  1 active torsions:
REMARK  status: ('A' for Active; 'I' for Inactive)
REMARK    1  A    between atoms: C2_2  and  C3_3 
ROOT
HETATM    1  C3  UNL     1     -15.265   6.529   4.494  1.00  0.00    -0.059 A 
HETATM    2  C4  UNL     1     -14.157   6.972   5.229  1.00  0.00     0.007 A 
HETATM    3  C5  UNL     1     -13.452   8.108   4.828  1.00  0.00     0.001 A 
HETATM    4  C6  UNL     1     -13.849   8.813   3.694  1.00  0.00     0.000 A 
HETATM    5  C7  UNL     1     -14.954   8.385   2.960  1.00  0.00     0.001 A 
HETATM    6  C8  UNL     1     -15.661   7.249   3.359  1.00  0.00     0.007 A 
ENDROOT
BRANCH   1   7
HETATM    7  C2  UNL     1     -16.038   5.313   4.936  1.00  0.00     0.034 C 
HETATM    8  C1  UNL     1     -16.458   5.408   6.395  1.00  0.00     0.010 C 
ENDBRANCH   1   7
TORSDOF 1
ENDMDL
MODEL 7
REMARK VINA RESULT:      -4.1      1.395      2.892
REMARK  1 active torsions:
REMARK  status: ('A' for Active; 'I' for Inactive)
REMARK    1  A    between atoms: C2_2  and  C3_3 
ROOT
HETATM    1  C3  UNL     1     -16.006   4.295   4.868  1.00  0.00    -0.059 A 
HETATM    2  C4  UNL     1     -14.963   3.754   4.104  1.00  0.00     0.007 A 
HETATM    3  C5  UNL     1     -13.994   4.588   3.541  1.00  0.00     0.001 A 
HETATM    4  C6  UNL     1     -14.056   5.965   3.740  1.00  0.00     0.000 A 
HETATM    5  C7  UNL     1     -15.086   6.512   4.504  1.00  0.00     0.001 A 
HETATM    6  C8  UNL     1     -16.055   5.681   5.068  1.00  0.00     0.007 A 
ENDROOT
BRANCH   1   7
HETATM    7  C2  UNL     1     -17.041   3.395   5.491  1.00  0.00     0.034 C 
HETATM    8  C1  UNL     1     -17.346   3.791   6.927  1.00  0.00     0.010 C 
ENDBRANCH   1   7
TORSDOF 1
ENDMDL
MODEL 8
REMARK VINA RESULT:      -4.1      2.317      3.470
REMARK  1 active torsions:
REMARK  status: ('A' for Active; 'I' for Inactive)
REMARK    1  A    between atoms: C2_2  and  C3_3 
ROOT
HETATM    1  C3  UNL     1     -15.833   1.196   4.252  1.00  0.00    -0.059 A 
HETATM    2  C4  UNL     1     -15.462   2.518   4.532  1.00  0.00     0.007 A 
HETATM    3  C5  UNL     1     -16.327   3.361   5.231  1.00  0.00     0.001 A 
HETATM    4  C6  UNL     1     -17.566   2.891   5.661  1.00  0.00     0.000 A 
HETATM    5  C7  UNL     1     -17.942   1.576   5.393  1.00  0.00     0.001 A 
HETATM    6  C8  UNL     1     -17.079   0.731   4.694  1.00  0.00     0.007 A 
ENDROOT
BRANCH   1   7
HETATM    7  C2  UNL     1     -14.893   0.279   3.513  1.00  0.00     0.034 C 
HETATM    8  C1  UNL     1     -15.290  -1.182   3.665  1.00  0.00     0.010 C 
ENDBRANCH   1   7
TORSDOF 1
ENDMDL
MODEL 9
REMARK VINA RESULT:      -4.0      1.496      3.777
REMARK  1 active torsions:
REMARK  status: ('A' for Active; 'I' for Inactive)
REMARK    1  A    between atoms: C2_2  and  C3_3 
ROOT
HETATM    1  C3  UNL     1     -15.802   4.495   4.732  1.00  0.00    -0.059 A 
HETATM    2  C4  UNL     1     -16.733   3.604   5.281  1.00  0.00     0.007 A 
HETATM    3  C5  UNL     1     -16.582   2.228   5.108  1.00  0.00     0.001 A 
HETATM    4  C6  UNL     1     -15.497   1.729   4.389  1.00  0.00     0.000 A 
HETATM    5  C7  UNL     1     -14.561   2.606   3.845  1.00  0.00     0.001 A 
HETATM    6  C8  UNL     1     -14.710   3.983   4.017  1.00  0.00     0.007 A 
ENDROOT
BRANCH   1   7
HETATM    7  C2  UNL     1     -15.954   5.981   4.934  1.00  0.00     0.034 C 
HETATM    8  C1  UNL     1     -15.081   6.776   3.975  1.00  0.00     0.010 C 
ENDBRANCH   1   7
TORSDOF 1
ENDMDL
