MODEL 1
REMARK VINA RESULT:      -4.2      0.000      0.000
REMARK  0 active torsions:
REMARK  status: ('A' for Active; 'I' for Inactive)
ROOT
HETATM    1  C1  UNL     1     -17.760   2.720   6.101  1.00  0.00     0.064 C 
HETATM    2  C2  UNL     1     -16.554   2.552   5.238  1.00  0.00     0.015 C 
HETATM    3  C3  UNL     1     -15.784   3.534   4.737  1.00  0.00     0.026 C 
HETATM    4  C4  UNL     1     -14.728   2.845   3.954  1.00  0.00     0.265 C 
HETATM    5  O1  UNL     1     -13.920   3.411   3.237  1.00  0.00    -0.266 OA
HETATM    6  N1  UNL     1     -14.893   1.473   4.158  1.00  0.00    -0.277 N 
HETATM    7  N2  UNL     1     -16.113   1.280   4.858  1.00  0.00    -0.200 NA
HETATM    8  C5  UNL     1     -16.125   0.154   5.791  1.00  0.00     0.142 C 
HETATM    9  C6  UNL     1     -14.553   0.555   3.096  1.00  0.00     0.175 C 
HETATM   10  C7  UNL     1     -15.834   5.008   4.834  1.00  0.00     0.056 C 
ENDROOT
TORSDOF 0
ENDMDL
MODEL 2
REMARK VINA RESULT:      -4.2      1.480      2.396
REMARK  0 active torsions:
REMARK  status: ('A' for Active; 'I' for Inactive)
ROOT
HETATM    1  C1  UNL     1     -15.982   5.966   5.007  1.00  0.00     0.064 C 
HETATM    2  C2  UNL     1     -15.585   4.561   4.696  1.00  0.00     0.015 C 
HETATM    3  C3  UNL     1     -14.533   4.171   3.955  1.00  0.00     0.026 C 
HETATM    4  C4  UNL     1     -14.584   2.687   3.952  1.00  0.00     0.265 C 
HETATM    5  O1  UNL     1     -13.868   1.974   3.268  1.00  0.00    -0.266 OA
HETATM    6  N1  UNL     1     -15.618   2.308   4.810  1.00  0.00    -0.277 N 
HETATM    7  N2  UNL     1     -16.330   3.480   5.179  1.00  0.00    -0.200 NA
HETATM    8  C5  UNL     1     -16.882   3.473   6.533  1.00  0.00     0.142 C 
HETATM    9  C6  UNL     1     -16.365   1.105   4.528  1.00  0.00     0.175 C 
HETATM   10  C7  UNL     1     -13.476   4.909   3.232  1.00  0.00     0.056 C 
ENDROOT
TORSDOF 0
ENDMDL
MODEL 3
REMARK VINA RESULT:      -4.1     13.943     15.234
REMARK  0 active torsions:
REMARK  status: ('A' for Active; 'I' for Inactive)
ROOT
HETATM    1  C1  UNL     1     -16.724  10.977  -4.677  1.00  0.00     0.064 C 
HETATM    2  C2  UNL     1     -16.586  12.400  -5.109  1.00  0.00     0.015 C 
HETATM    3  C3  UNL     1     -17.452  13.094  -5.866  1.00  0.00     0.026 C 
HETATM    4  C4  UNL     1     -16.856  14.447  -6.006  1.00  0.00     0.265 C 
HETATM    5  O1  UNL     1     -17.287  15.319  -6.742  1.00  0.00    -0.266 OA
HETATM    6  N1  UNL     1     -15.714  14.479  -5.202  1.00  0.00    -0.277 N 
HETATM    7  N2  UNL     1     -15.470  13.159  -4.738  1.00  0.00    -0.200 NA
HETATM    8  C5  UNL     1     -14.891  13.066  -3.399  1.00  0.00     0.142 C 
HETATM    9  C6  UNL     1     -14.589  15.289  -5.604  1.00  0.00     0.175 C 
HETATM   10  C7  UNL     1     -18.741  12.751  -6.503  1.00  0.00     0.056 C 
ENDROOT
TORSDOF 0
ENDMDL
MODEL 4
REMARK VINA RESULT:      -4.1     13.827     15.237
REMARK  0 active torsions:
REMARK  status: ('A' for Active; 'I' for Inactive)
ROOT
HETATM    1  C1  UNL     1     -18.584  12.538  -6.782  1.00  0.00     0.064 C 
HETATM    2  C2  UNL     1     -17.460  12.990  -5.909  1.00  0.00     0.015 C 
HETATM    3  C3  UNL     1     -16.787  12.242  -5.018  1.00  0.00     0.026 C 
HETATM    4  C4  UNL     1     -15.782  13.155  -4.418  1.00  0.00     0.265 C 
HETATM    5  O1  UNL     1     -15.073  12.872  -3.467  1.00  0.00    -0.266 OA
HETATM    6  N1  UNL     1     -15.865  14.369  -5.105  1.00  0.00    -0.277 N 
HETATM    7  N2  UNL     1     -17.003  14.311  -5.954  1.00  0.00    -0.200 NA
HETATM    8  C5  UNL     1     -16.874  15.035  -7.217  1.00  0.00     0.142 C 
HETATM    9  C6  UNL     1     -15.588  15.599  -4.402  1.00  0.00     0.175 C 
HETATM   10  C7  UNL     1     -16.893  10.829  -4.597  1.00  0.00     0.056 C 
ENDROOT
TORSDOF 0
ENDMDL
MODEL 5
REMARK VINA RESULT:      -4.1     13.246     14.619
REMARK  0 active torsions:
REMARK  status: ('A' for Active; 'I' for Inactive)
ROOT
HETATM    1  C1  UNL     1     -16.683  15.103  -6.283  1.00  0.00     0.064 C 
HETATM    2  C2  UNL     1     -16.648  13.745  -5.663  1.00  0.00     0.015 C 
HETATM    3  C3  UNL     1     -17.558  12.768  -5.822  1.00  0.00     0.026 C 
HETATM    4  C4  UNL     1     -17.064  11.634  -5.001  1.00  0.00     0.265 C 
HETATM    5  O1  UNL     1     -17.695  10.613  -4.784  1.00  0.00    -0.266 OA
HETATM    6  N1  UNL     1     -15.810  11.999  -4.505  1.00  0.00    -0.277 N 
HETATM    7  N2  UNL     1     -15.603  13.370  -4.812  1.00  0.00    -0.200 NA
HETATM    8  C5  UNL     1     -14.217  13.743  -5.090  1.00  0.00     0.142 C 
HETATM    9  C6  UNL     1     -15.392  11.509  -3.213  1.00  0.00     0.175 C 
HETATM   10  C7  UNL     1     -18.818  12.673  -6.589  1.00  0.00     0.056 C 
ENDROOT
TORSDOF 0
ENDMDL
MODEL 6
REMARK VINA RESULT:      -3.9     13.795     15.049
REMARK  0 active torsions:
REMARK  status: ('A' for Active; 'I' for Inactive)
ROOT
HETATM    1  C1  UNL     1     -14.857  12.817  -3.208  1.00  0.00     0.064 C 
HETATM    2  C2  UNL     1     -15.731  13.260  -4.335  1.00  0.00     0.015 C 
HETATM    3  C3  UNL     1     -15.758  14.483  -4.893  1.00  0.00     0.026 C 
HETATM    4  C4  UNL     1     -16.789  14.405  -5.959  1.00  0.00     0.265 C 
HETATM    5  O1  UNL     1     -17.196  15.362  -6.597  1.00  0.00    -0.266 OA
HETATM    6  N1  UNL     1     -17.214  13.076  -6.025  1.00  0.00    -0.277 N 
HETATM    7  N2  UNL     1     -16.646  12.382  -4.924  1.00  0.00    -0.200 NA
HETATM    8  C5  UNL     1     -16.311  10.981  -5.176  1.00  0.00     0.142 C 
HETATM    9  C6  UNL     1     -18.579  12.789  -6.394  1.00  0.00     0.175 C 
HETATM   10  C7  UNL     1     -15.014  15.733  -4.629  1.00  0.00     0.056 C 
ENDROOT
TORSDOF 0
ENDMDL
MODEL 7
REMARK VINA RESULT:      -3.9     13.781     15.083
REMARK  0 active torsions:
REMARK  status: ('A' for Active; 'I' for Inactive)
ROOT
HETATM    1  C1  UNL     1     -17.183  15.319  -7.002  1.00  0.00     0.064 C 
HETATM    2  C2  UNL     1     -16.718  14.326  -5.989  1.00  0.00     0.015 C 
HETATM    3  C3  UNL     1     -15.845  14.549  -4.991  1.00  0.00     0.026 C 
HETATM    4  C4  UNL     1     -15.723  13.252  -4.278  1.00  0.00     0.265 C 
HETATM    5  O1  UNL     1     -14.914  13.023  -3.395  1.00  0.00    -0.266 OA
HETATM    6  N1  UNL     1     -16.647  12.377  -4.854  1.00  0.00    -0.277 N 
HETATM    7  N2  UNL     1     -17.182  13.006  -6.010  1.00  0.00    -0.200 NA
HETATM    8  C5  UNL     1     -18.580  12.690  -6.301  1.00  0.00     0.142 C 
HETATM    9  C6  UNL     1     -16.343  10.967  -4.914  1.00  0.00     0.175 C 
HETATM   10  C7  UNL     1     -15.082  15.740  -4.561  1.00  0.00     0.056 C 
ENDROOT
TORSDOF 0
ENDMDL
MODEL 8
REMARK VINA RESULT:      -3.8     12.331     13.534
REMARK  0 active torsions:
REMARK  status: ('A' for Active; 'I' for Inactive)
ROOT
HETATM    1  C1  UNL     1     -15.099  15.989  -3.168  1.00  0.00     0.064 C 
HETATM    2  C2  UNL     1     -14.856  14.546  -2.867  1.00  0.00     0.015 C 
HETATM    3  C3  UNL     1     -14.428  14.033  -1.701  1.00  0.00     0.026 C 
HETATM    4  C4  UNL     1     -14.350  12.567  -1.921  1.00  0.00     0.265 C 
HETATM    5  O1  UNL     1     -13.868  11.774  -1.129  1.00  0.00    -0.266 OA
HETATM    6  N1  UNL     1     -14.865  12.314  -3.195  1.00  0.00    -0.277 N 
HETATM    7  N2  UNL     1     -15.065  13.563  -3.840  1.00  0.00    -0.200 NA
HETATM    8  C5  UNL     1     -16.207  13.618  -4.752  1.00  0.00     0.142 C 
HETATM    9  C6  UNL     1     -14.335  11.215  -3.966  1.00  0.00     0.175 C 
HETATM   10  C7  UNL     1     -14.062  14.638  -0.402  1.00  0.00     0.056 C 
ENDROOT
TORSDOF 0
ENDMDL
MODEL 9
REMARK VINA RESULT:      -3.7      1.880      3.200
REMARK  0 active torsions:
REMARK  status: ('A' for Active; 'I' for Inactive)
ROOT
HETATM    1  C1  UNL     1     -15.227   4.753   4.665  1.00  0.00     0.064 C 
HETATM    2  C2  UNL     1     -15.797   3.376   4.759  1.00  0.00     0.015 C 
HETATM    3  C3  UNL     1     -15.230   2.243   4.310  1.00  0.00     0.026 C 
HETATM    4  C4  UNL     1     -16.193   1.163   4.644  1.00  0.00     0.265 C 
HETATM    5  O1  UNL     1     -16.090   0.007   4.271  1.00  0.00    -0.266 OA
HETATM    6  N1  UNL     1     -17.223   1.745   5.387  1.00  0.00    -0.277 N 
HETATM    7  N2  UNL     1     -17.044   3.153   5.352  1.00  0.00    -0.200 NA
HETATM    8  C5  UNL     1     -17.455   3.863   6.562  1.00  0.00     0.142 C 
HETATM    9  C6  UNL     1     -18.561   1.215   5.275  1.00  0.00     0.175 C 
HETATM   10  C7  UNL     1     -13.957   1.953   3.617  1.00  0.00     0.056 C 
ENDROOT
TORSDOF 0
ENDMDL
