MODEL 1
REMARK VINA RESULT:      -2.9      0.000      0.000
REMARK  3 active torsions:
REMARK  status: ('A' for Active; 'I' for Inactive)
REMARK    1  A    between atoms: C2_2  and  N1_3 
REMARK    2  A    between atoms: N1_3  and  C3_4 
REMARK    3  A    between atoms: N1_3  and  C5_6 
ROOT
HETATM    1  N1  UNL     1     -13.270   8.095   4.279  1.00  0.00     0.087 N 
ENDROOT
BRANCH   1   2
HETATM    2  C2  UNL     1     -13.778   8.155   2.897  1.00  0.00     0.268 C 
HETATM    3  C1  UNL     1     -12.712   7.641   1.938  1.00  0.00     0.037 C 
ENDBRANCH   1   2
BRANCH   1   4
HETATM    4  C3  UNL     1     -13.951   7.058   5.073  1.00  0.00     0.268 C 
HETATM    5  C4  UNL     1     -15.217   6.538   4.397  1.00  0.00     0.037 C 
ENDBRANCH   1   4
BRANCH   1   6
HETATM    6  C5  UNL     1     -13.368   9.398   4.959  1.00  0.00     0.268 C 
HETATM    7  C6  UNL     1     -13.815  10.517   4.023  1.00  0.00     0.037 C 
ENDBRANCH   1   6
TORSDOF 3
ENDMDL
MODEL 2
REMARK VINA RESULT:      -2.9      0.151      2.987
REMARK  3 active torsions:
REMARK  status: ('A' for Active; 'I' for Inactive)
REMARK    1  A    between atoms: C2_2  and  N1_3 
REMARK    2  A    between atoms: N1_3  and  C3_4 
REMARK    3  A    between atoms: N1_3  and  C5_6 
ROOT
HETATM    1  N1  UNL     1     -13.352   7.962   4.390  1.00  0.00     0.087 N 
ENDROOT
BRANCH   1   2
HETATM    2  C2  UNL     1     -14.131   6.969   5.152  1.00  0.00     0.268 C 
HETATM    3  C1  UNL     1     -15.338   6.531   4.333  1.00  0.00     0.037 C 
ENDBRANCH   1   2
BRANCH   1   4
HETATM    4  C3  UNL     1     -13.376   9.290   5.027  1.00  0.00     0.268 C 
HETATM    5  C4  UNL     1     -13.807  10.393   4.064  1.00  0.00     0.037 C 
ENDBRANCH   1   4
BRANCH   1   6
HETATM    6  C5  UNL     1     -13.804   8.063   2.992  1.00  0.00     0.268 C 
HETATM    7  C6  UNL     1     -12.746   7.593   1.997  1.00  0.00     0.037 C 
ENDBRANCH   1   6
TORSDOF 3
ENDMDL
MODEL 3
REMARK VINA RESULT:      -2.9      1.983      4.029
REMARK  3 active torsions:
REMARK  status: ('A' for Active; 'I' for Inactive)
REMARK    1  A    between atoms: C2_2  and  N1_3 
REMARK    2  A    between atoms: N1_3  and  C3_4 
REMARK    3  A    between atoms: N1_3  and  C5_6 
ROOT
HETATM    1  N1  UNL     1     -11.768   9.863   3.527  1.00  0.00     0.087 N 
ENDROOT
BRANCH   1   2
HETATM    2  C2  UNL     1     -13.209   9.710   3.795  1.00  0.00     0.268 C 
HETATM    3  C1  UNL     1     -13.417   9.270   5.238  1.00  0.00     0.037 C 
ENDBRANCH   1   2
BRANCH   1   4
HETATM    4  C3  UNL     1     -11.442  11.198   2.999  1.00  0.00     0.268 C 
HETATM    5  C4  UNL     1     -12.683  12.059   2.773  1.00  0.00     0.037 C 
ENDBRANCH   1   4
BRANCH   1   6
HETATM    6  C5  UNL     1     -11.263   8.821   2.615  1.00  0.00     0.268 C 
HETATM    7  C6  UNL     1     -12.365   8.215   1.750  1.00  0.00     0.037 C 
ENDBRANCH   1   6
TORSDOF 3
ENDMDL
MODEL 4
REMARK VINA RESULT:      -2.8      0.656      2.735
REMARK  3 active torsions:
REMARK  status: ('A' for Active; 'I' for Inactive)
REMARK    1  A    between atoms: C2_2  and  N1_3 
REMARK    2  A    between atoms: N1_3  and  C3_4 
REMARK    3  A    between atoms: N1_3  and  C5_6 
ROOT
HETATM    1  N1  UNL     1     -13.494   8.159   4.180  1.00  0.00     0.087 N 
ENDROOT
BRANCH   1   2
HETATM    2  C2  UNL     1     -12.354   7.915   3.278  1.00  0.00     0.268 C 
HETATM    3  C1  UNL     1     -12.835   7.179   2.034  1.00  0.00     0.037 C 
ENDBRANCH   1   2
BRANCH   1   4
HETATM    4  C3  UNL     1     -13.361   9.434   4.905  1.00  0.00     0.268 C 
HETATM    5  C4  UNL     1     -13.873  10.624   4.098  1.00  0.00     0.037 C 
ENDBRANCH   1   4
BRANCH   1   6
HETATM    6  C5  UNL     1     -13.691   7.053   5.133  1.00  0.00     0.268 C 
HETATM    7  C6  UNL     1     -15.047   6.372   4.969  1.00  0.00     0.037 C 
ENDBRANCH   1   6
TORSDOF 3
ENDMDL
MODEL 5
REMARK VINA RESULT:      -2.8      0.625      2.543
REMARK  3 active torsions:
REMARK  status: ('A' for Active; 'I' for Inactive)
REMARK    1  A    between atoms: C2_2  and  N1_3 
REMARK    2  A    between atoms: N1_3  and  C3_4 
REMARK    3  A    between atoms: N1_3  and  C5_6 
ROOT
HETATM    1  N1  UNL     1     -14.250   8.366   3.768  1.00  0.00     0.087 N 
ENDROOT
BRANCH   1   2
HETATM    2  C2  UNL     1     -13.412   9.351   4.475  1.00  0.00     0.268 C 
HETATM    3  C1  UNL     1     -13.843  10.760   4.085  1.00  0.00     0.037 C 
ENDBRANCH   1   2
BRANCH   1   4
HETATM    4  C3  UNL     1     -14.193   7.037   4.402  1.00  0.00     0.268 C 
HETATM    5  C4  UNL     1     -15.537   6.313   4.366  1.00  0.00     0.037 C 
ENDBRANCH   1   4
BRANCH   1   6
HETATM    6  C5  UNL     1     -13.894   8.261   2.342  1.00  0.00     0.268 C 
HETATM    7  C6  UNL     1     -12.734   7.301   2.096  1.00  0.00     0.037 C 
ENDBRANCH   1   6
TORSDOF 3
ENDMDL
MODEL 6
REMARK VINA RESULT:      -2.8      0.770      3.144
REMARK  3 active torsions:
REMARK  status: ('A' for Active; 'I' for Inactive)
REMARK    1  A    between atoms: C2_2  and  N1_3 
REMARK    2  A    between atoms: N1_3  and  C3_4 
REMARK    3  A    between atoms: N1_3  and  C5_6 
ROOT
HETATM    1  N1  UNL     1     -13.157   8.344   4.026  1.00  0.00     0.087 N 
ENDROOT
BRANCH   1   2
HETATM    2  C2  UNL     1     -13.327   9.532   4.882  1.00  0.00     0.268 C 
HETATM    3  C1  UNL     1     -13.909  10.674   4.060  1.00  0.00     0.037 C 
ENDBRANCH   1   2
BRANCH   1   4
HETATM    4  C3  UNL     1     -12.033   8.496   3.087  1.00  0.00     0.268 C 
HETATM    5  C4  UNL     1     -12.350   7.942   1.699  1.00  0.00     0.037 C 
ENDBRANCH   1   4
BRANCH   1   6
HETATM    6  C5  UNL     1     -14.390   8.013   3.291  1.00  0.00     0.268 C 
HETATM    7  C6  UNL     1     -15.193   6.902   3.962  1.00  0.00     0.037 C 
ENDBRANCH   1   6
TORSDOF 3
ENDMDL
MODEL 7
REMARK VINA RESULT:      -2.8      9.685     10.660
REMARK  3 active torsions:
REMARK  status: ('A' for Active; 'I' for Inactive)
REMARK    1  A    between atoms: C2_2  and  N1_3 
REMARK    2  A    between atoms: N1_3  and  C3_4 
REMARK    3  A    between atoms: N1_3  and  C5_6 
ROOT
HETATM    1  N1  UNL     1     -16.403  12.336  -5.333  1.00  0.00     0.087 N 
ENDROOT
BRANCH   1   2
HETATM    2  C2  UNL     1     -16.417  13.809  -5.373  1.00  0.00     0.268 C 
HETATM    3  C1  UNL     1     -15.616  14.359  -4.199  1.00  0.00     0.037 C 
ENDBRANCH   1   2
BRANCH   1   4
HETATM    4  C3  UNL     1     -17.735  11.764  -5.593  1.00  0.00     0.268 C 
HETATM    5  C4  UNL     1     -18.632  12.706  -6.392  1.00  0.00     0.037 C 
ENDBRANCH   1   4
BRANCH   1   6
HETATM    6  C5  UNL     1     -15.873  11.824  -4.057  1.00  0.00     0.268 C 
HETATM    7  C6  UNL     1     -16.334  10.399  -3.760  1.00  0.00     0.037 C 
ENDBRANCH   1   6
TORSDOF 3
ENDMDL
MODEL 8
REMARK VINA RESULT:      -2.8      9.655     10.715
REMARK  3 active torsions:
REMARK  status: ('A' for Active; 'I' for Inactive)
REMARK    1  A    between atoms: C2_2  and  N1_3 
REMARK    2  A    between atoms: N1_3  and  C3_4 
REMARK    3  A    between atoms: N1_3  and  C5_6 
ROOT
HETATM    1  N1  UNL     1     -16.394  12.288  -5.293  1.00  0.00     0.087 N 
ENDROOT
BRANCH   1   2
HETATM    2  C2  UNL     1     -15.846  11.774  -4.026  1.00  0.00     0.268 C 
HETATM    3  C1  UNL     1     -16.365  10.364  -3.779  1.00  0.00     0.037 C 
ENDBRANCH   1   2
BRANCH   1   4
HETATM    4  C3  UNL     1     -16.427  13.760  -5.324  1.00  0.00     0.268 C 
HETATM    5  C4  UNL     1     -15.637  14.389  -4.179  1.00  0.00     0.037 C 
ENDBRANCH   1   4
BRANCH   1   6
HETATM    6  C5  UNL     1     -17.735  11.746  -5.574  1.00  0.00     0.268 C 
HETATM    7  C6  UNL     1     -18.601  12.712  -6.377  1.00  0.00     0.037 C 
ENDBRANCH   1   6
TORSDOF 3
ENDMDL
MODEL 9
REMARK VINA RESULT:      -2.8      9.775     10.535
REMARK  3 active torsions:
REMARK  status: ('A' for Active; 'I' for Inactive)
REMARK    1  A    between atoms: C2_2  and  N1_3 
REMARK    2  A    between atoms: N1_3  and  C3_4 
REMARK    3  A    between atoms: N1_3  and  C5_6 
ROOT
HETATM    1  N1  UNL     1     -16.400  12.375  -5.434  1.00  0.00     0.087 N 
ENDROOT
BRANCH   1   2
HETATM    2  C2  UNL     1     -17.293  13.379  -6.039  1.00  0.00     0.268 C 
HETATM    3  C1  UNL     1     -18.622  12.729  -6.401  1.00  0.00     0.037 C 
ENDBRANCH   1   2
BRANCH   1   4
HETATM    4  C3  UNL     1     -17.128  11.160  -5.030  1.00  0.00     0.268 C 
HETATM    5  C4  UNL     1     -16.445  10.422  -3.881  1.00  0.00     0.037 C 
ENDBRANCH   1   4
BRANCH   1   6
HETATM    6  C5  UNL     1     -15.652  12.921  -4.287  1.00  0.00     0.268 C 
HETATM    7  C6  UNL     1     -15.669  14.446  -4.249  1.00  0.00     0.037 C 
ENDBRANCH   1   6
TORSDOF 3
ENDMDL
