MODEL 1
REMARK VINA RESULT:      -5.3      0.000      0.000
REMARK  1 active torsions:
REMARK  status: ('A' for Active; 'I' for Inactive)
REMARK    1  A    between atoms: C5_5  and  C8_8 
ROOT
HETATM    1  C1  UNL     1     -14.822   6.973   4.393  1.00  0.00     0.048 C 
HETATM    2  C2  UNL     1     -15.424   5.731   4.975  1.00  0.00    -0.062 A 
HETATM    3  C3  UNL     1     -15.279   4.500   4.326  1.00  0.00     0.007 A 
HETATM    4  C4  UNL     1     -15.866   3.346   4.852  1.00  0.00     0.008 A 
HETATM    5  C5  UNL     1     -16.621   3.399   6.033  1.00  0.00    -0.055 A 
HETATM    6  C6  UNL     1     -16.776   4.638   6.670  1.00  0.00     0.008 A 
HETATM    7  C7  UNL     1     -16.189   5.792   6.144  1.00  0.00     0.007 A 
ENDROOT
BRANCH   5   8
HETATM    8  C8  UNL     1     -17.249   2.132   6.585  1.00  0.00     0.010 C 
HETATM    9  C9  UNL     1     -18.263   1.535   5.605  1.00  0.00     0.015 C 
HETATM   10  C10 UNL     1     -17.890   2.371   7.954  1.00  0.00     0.015 C 
ENDBRANCH   5   8
TORSDOF 1
ENDMDL
MODEL 2
REMARK VINA RESULT:      -5.3      0.058      1.525
REMARK  1 active torsions:
REMARK  status: ('A' for Active; 'I' for Inactive)
REMARK    1  A    between atoms: C5_5  and  C8_8 
ROOT
HETATM    1  C1  UNL     1     -14.771   6.980   4.385  1.00  0.00     0.048 C 
HETATM    2  C2  UNL     1     -15.426   5.742   4.921  1.00  0.00    -0.062 A 
HETATM    3  C3  UNL     1     -16.167   5.788   6.106  1.00  0.00     0.007 A 
HETATM    4  C4  UNL     1     -16.752   4.628   6.623  1.00  0.00     0.008 A 
HETATM    5  C5  UNL     1     -16.598   3.396   5.972  1.00  0.00    -0.055 A 
HETATM    6  C6  UNL     1     -15.840   3.353   4.793  1.00  0.00     0.008 A 
HETATM    7  C7  UNL     1     -15.256   4.513   4.277  1.00  0.00     0.007 A 
ENDROOT
BRANCH   5   8
HETATM    8  C8  UNL     1     -17.242   2.149   6.553  1.00  0.00     0.010 C 
HETATM    9  C9  UNL     1     -18.236   1.522   5.572  1.00  0.00     0.015 C 
HETATM   10  C10 UNL     1     -17.910   2.435   7.899  1.00  0.00     0.015 C 
ENDBRANCH   5   8
TORSDOF 1
ENDMDL
MODEL 3
REMARK VINA RESULT:      -5.2      0.849      4.634
REMARK  1 active torsions:
REMARK  status: ('A' for Active; 'I' for Inactive)
REMARK    1  A    between atoms: C5_5  and  C8_8 
ROOT
HETATM    1  C1  UNL     1     -17.806   2.370   7.280  1.00  0.00     0.048 C 
HETATM    2  C2  UNL     1     -17.006   3.369   6.500  1.00  0.00    -0.062 A 
HETATM    3  C3  UNL     1     -16.953   4.707   6.905  1.00  0.00     0.007 A 
HETATM    4  C4  UNL     1     -16.232   5.646   6.160  1.00  0.00     0.008 A 
HETATM    5  C5  UNL     1     -15.559   5.269   4.989  1.00  0.00    -0.055 A 
HETATM    6  C6  UNL     1     -15.631   3.930   4.580  1.00  0.00     0.008 A 
HETATM    7  C7  UNL     1     -16.351   2.992   5.324  1.00  0.00     0.007 A 
ENDROOT
BRANCH   5   8
HETATM    8  C8  UNL     1     -14.784   6.307   4.197  1.00  0.00     0.010 C 
HETATM    9  C9  UNL     1     -13.760   7.033   5.074  1.00  0.00     0.015 C 
HETATM   10  C10 UNL     1     -15.718   7.304   3.509  1.00  0.00     0.015 C 
ENDBRANCH   5   8
TORSDOF 1
ENDMDL
MODEL 4
REMARK VINA RESULT:      -5.0      1.742      4.231
REMARK  1 active torsions:
REMARK  status: ('A' for Active; 'I' for Inactive)
REMARK    1  A    between atoms: C5_5  and  C8_8 
ROOT
HETATM    1  C1  UNL     1     -15.668  -0.599   4.244  1.00  0.00     0.048 C 
HETATM    2  C2  UNL     1     -15.820   0.884   4.404  1.00  0.00    -0.062 A 
HETATM    3  C3  UNL     1     -14.839   1.754   3.917  1.00  0.00     0.007 A 
HETATM    4  C4  UNL     1     -14.965   3.136   4.093  1.00  0.00     0.008 A 
HETATM    5  C5  UNL     1     -16.068   3.675   4.769  1.00  0.00    -0.055 A 
HETATM    6  C6  UNL     1     -17.040   2.796   5.269  1.00  0.00     0.008 A 
HETATM    7  C7  UNL     1     -16.914   1.416   5.093  1.00  0.00     0.007 A 
ENDROOT
BRANCH   5   8
HETATM    8  C8  UNL     1     -16.183   5.178   4.948  1.00  0.00     0.010 C 
HETATM    9  C9  UNL     1     -14.988   5.910   4.332  1.00  0.00     0.015 C 
HETATM   10  C10 UNL     1     -16.357   5.559   6.419  1.00  0.00     0.015 C 
ENDBRANCH   5   8
TORSDOF 1
ENDMDL
MODEL 5
REMARK VINA RESULT:      -4.9      1.655      3.399
REMARK  1 active torsions:
REMARK  status: ('A' for Active; 'I' for Inactive)
REMARK    1  A    between atoms: C5_5  and  C8_8 
ROOT
HETATM    1  C1  UNL     1     -12.719   7.889   2.198  1.00  0.00     0.048 C 
HETATM    2  C2  UNL     1     -13.669   6.982   2.920  1.00  0.00    -0.062 A 
HETATM    3  C3  UNL     1     -14.847   7.490   3.480  1.00  0.00     0.007 A 
HETATM    4  C4  UNL     1     -15.719   6.651   4.181  1.00  0.00     0.008 A 
HETATM    5  C5  UNL     1     -15.427   5.290   4.345  1.00  0.00    -0.055 A 
HETATM    6  C6  UNL     1     -14.238   4.790   3.795  1.00  0.00     0.008 A 
HETATM    7  C7  UNL     1     -13.366   5.629   3.096  1.00  0.00     0.007 A 
ENDROOT
BRANCH   5   8
HETATM    8  C8  UNL     1     -16.390   4.399   5.110  1.00  0.00     0.010 C 
HETATM    9  C9  UNL     1     -16.521   4.837   6.571  1.00  0.00     0.015 C 
HETATM   10  C10 UNL     1     -15.989   2.925   5.017  1.00  0.00     0.015 C 
ENDBRANCH   5   8
TORSDOF 1
ENDMDL
MODEL 6
REMARK VINA RESULT:      -4.8      2.714      4.834
REMARK  1 active torsions:
REMARK  status: ('A' for Active; 'I' for Inactive)
REMARK    1  A    between atoms: C5_5  and  C8_8 
ROOT
HETATM    1  C1  UNL     1     -12.926  11.038   3.299  1.00  0.00     0.048 C 
HETATM    2  C2  UNL     1     -13.569   9.714   3.585  1.00  0.00    -0.062 A 
HETATM    3  C3  UNL     1     -14.496   9.167   2.692  1.00  0.00     0.007 A 
HETATM    4  C4  UNL     1     -15.118   7.947   2.973  1.00  0.00     0.008 A 
HETATM    5  C5  UNL     1     -14.836   7.255   4.159  1.00  0.00    -0.055 A 
HETATM    6  C6  UNL     1     -13.919   7.816   5.058  1.00  0.00     0.008 A 
HETATM    7  C7  UNL     1     -13.296   9.035   4.777  1.00  0.00     0.007 A 
ENDROOT
BRANCH   5   8
HETATM    8  C8  UNL     1     -15.526   5.932   4.443  1.00  0.00     0.010 C 
HETATM    9  C9  UNL     1     -15.888   5.794   5.924  1.00  0.00     0.015 C 
HETATM   10  C10 UNL     1     -14.682   4.745   3.975  1.00  0.00     0.015 C 
ENDBRANCH   5   8
TORSDOF 1
ENDMDL
MODEL 7
REMARK VINA RESULT:      -4.8      1.846      3.311
REMARK  1 active torsions:
REMARK  status: ('A' for Active; 'I' for Inactive)
REMARK    1  A    between atoms: C5_5  and  C8_8 
ROOT
HETATM    1  C1  UNL     1     -13.655   9.397   2.797  1.00  0.00     0.048 C 
HETATM    2  C2  UNL     1     -14.198   8.238   3.577  1.00  0.00    -0.062 A 
HETATM    3  C3  UNL     1     -15.422   7.658   3.226  1.00  0.00     0.007 A 
HETATM    4  C4  UNL     1     -15.944   6.596   3.972  1.00  0.00     0.008 A 
HETATM    5  C5  UNL     1     -15.259   6.100   5.091  1.00  0.00    -0.055 A 
HETATM    6  C6  UNL     1     -14.041   6.697   5.446  1.00  0.00     0.008 A 
HETATM    7  C7  UNL     1     -13.519   7.758   4.701  1.00  0.00     0.007 A 
ENDROOT
BRANCH   5   8
HETATM    8  C8  UNL     1     -15.846   4.947   5.885  1.00  0.00     0.010 C 
HETATM    9  C9  UNL     1     -16.301   3.808   4.970  1.00  0.00     0.015 C 
HETATM   10  C10 UNL     1     -16.990   5.411   6.789  1.00  0.00     0.015 C 
ENDBRANCH   5   8
TORSDOF 1
ENDMDL
MODEL 8
REMARK VINA RESULT:      -4.5     13.849     15.403
REMARK  1 active torsions:
REMARK  status: ('A' for Active; 'I' for Inactive)
REMARK    1  A    between atoms: C5_5  and  C8_8 
ROOT
HETATM    1  C1  UNL     1     -18.479  12.454  -7.053  1.00  0.00     0.048 C 
HETATM    2  C2  UNL     1     -17.458  13.176  -6.227  1.00  0.00    -0.062 A 
HETATM    3  C3  UNL     1     -16.827  12.532  -5.157  1.00  0.00     0.007 A 
HETATM    4  C4  UNL     1     -15.897  13.214  -4.366  1.00  0.00     0.008 A 
HETATM    5  C5  UNL     1     -15.587  14.557  -4.622  1.00  0.00    -0.055 A 
HETATM    6  C6  UNL     1     -16.235  15.202  -5.685  1.00  0.00     0.008 A 
HETATM    7  C7  UNL     1     -17.164  14.520  -6.475  1.00  0.00     0.007 A 
ENDROOT
BRANCH   5   8
HETATM    8  C8  UNL     1     -14.574  15.277  -3.749  1.00  0.00     0.010 C 
HETATM    9  C9  UNL     1     -15.220  15.828  -2.475  1.00  0.00     0.015 C 
HETATM   10  C10 UNL     1     -13.854  16.386  -4.519  1.00  0.00     0.015 C 
ENDBRANCH   5   8
TORSDOF 1
ENDMDL
MODEL 9
REMARK VINA RESULT:      -4.5     13.863     15.443
REMARK  1 active torsions:
REMARK  status: ('A' for Active; 'I' for Inactive)
REMARK    1  A    between atoms: C5_5  and  C8_8 
ROOT
HETATM    1  C1  UNL     1     -18.513  12.464  -7.096  1.00  0.00     0.048 C 
HETATM    2  C2  UNL     1     -17.526  13.191  -6.233  1.00  0.00    -0.062 A 
HETATM    3  C3  UNL     1     -17.192  14.523  -6.504  1.00  0.00     0.007 A 
HETATM    4  C4  UNL     1     -16.249  15.192  -5.718  1.00  0.00     0.008 A 
HETATM    5  C5  UNL     1     -15.611  14.541  -4.653  1.00  0.00    -0.055 A 
HETATM    6  C6  UNL     1     -15.938  13.201  -4.397  1.00  0.00     0.008 A 
HETATM    7  C7  UNL     1     -16.881  12.533  -5.182  1.00  0.00     0.007 A 
ENDROOT
BRANCH   5   8
HETATM    8  C8  UNL     1     -14.590  15.288  -3.814  1.00  0.00     0.010 C 
HETATM    9  C9  UNL     1     -15.219  15.865  -2.544  1.00  0.00     0.015 C 
HETATM   10  C10 UNL     1     -13.890  16.383  -4.622  1.00  0.00     0.015 C 
ENDBRANCH   5   8
TORSDOF 1
ENDMDL
