MODEL 1
REMARK VINA RESULT:      -6.2      0.000      0.000
REMARK  1 active torsions:
REMARK  status: ('A' for Active; 'I' for Inactive)
REMARK    1  A    between atoms: C4_4  and  C7_7 
ROOT
HETATM    1  C1  UNL     1     -13.905   8.661   3.652  1.00  0.00     0.000 A 
HETATM    2  C2  UNL     1     -13.445   8.076   4.828  1.00  0.00     0.001 A 
HETATM    3  C3  UNL     1     -14.117   6.978   5.372  1.00  0.00     0.012 A 
HETATM    4  C4  UNL     1     -15.259   6.446   4.751  1.00  0.00    -0.026 A 
HETATM    5  C5  UNL     1     -15.706   7.053   3.565  1.00  0.00     0.012 A 
HETATM    6  C6  UNL     1     -15.036   8.151   3.019  1.00  0.00     0.001 A 
ENDROOT
BRANCH   4   7
HETATM    7  C7  UNL     1     -15.966   5.289   5.324  1.00  0.00    -0.026 A 
HETATM    8  C8  UNL     1     -16.647   5.391   6.549  1.00  0.00     0.012 A 
HETATM    9  C9  UNL     1     -17.319   4.294   7.095  1.00  0.00     0.001 A 
HETATM   10  C10 UNL     1     -17.321   3.074   6.424  1.00  0.00     0.000 A 
HETATM   11  C11 UNL     1     -16.654   2.951   5.208  1.00  0.00     0.001 A 
HETATM   12  C12 UNL     1     -15.981   4.049   4.665  1.00  0.00     0.012 A 
ENDBRANCH   4   7
TORSDOF 1
ENDMDL
MODEL 2
REMARK VINA RESULT:      -6.2      0.295      4.954
REMARK  1 active torsions:
REMARK  status: ('A' for Active; 'I' for Inactive)
REMARK    1  A    between atoms: C4_4  and  C7_7 
ROOT
HETATM    1  C1  UNL     1     -17.032   3.184   6.300  1.00  0.00     0.000 A 
HETATM    2  C2  UNL     1     -17.106   4.410   6.956  1.00  0.00     0.001 A 
HETATM    3  C3  UNL     1     -16.486   5.536   6.407  1.00  0.00     0.012 A 
HETATM    4  C4  UNL     1     -15.781   5.456   5.195  1.00  0.00    -0.026 A 
HETATM    5  C5  UNL     1     -15.718   4.209   4.550  1.00  0.00     0.012 A 
HETATM    6  C6  UNL     1     -16.338   3.082   5.097  1.00  0.00     0.001 A 
ENDROOT
BRANCH   4   7
HETATM    7  C7  UNL     1     -15.128   6.642   4.618  1.00  0.00    -0.026 A 
HETATM    8  C8  UNL     1     -15.628   7.251   3.454  1.00  0.00     0.012 A 
HETATM    9  C9  UNL     1     -15.009   8.377   2.905  1.00  0.00     0.001 A 
HETATM   10  C10 UNL     1     -13.877   8.914   3.511  1.00  0.00     0.000 A 
HETATM   11  C11 UNL     1     -13.364   8.328   4.665  1.00  0.00     0.001 A 
HETATM   12  C12 UNL     1     -13.984   7.201   5.212  1.00  0.00     0.012 A 
ENDBRANCH   4   7
TORSDOF 1
ENDMDL
MODEL 3
REMARK VINA RESULT:      -6.0      0.983      1.702
REMARK  1 active torsions:
REMARK  status: ('A' for Active; 'I' for Inactive)
REMARK    1  A    between atoms: C4_4  and  C7_7 
ROOT
HETATM    1  C1  UNL     1     -13.541   8.119   2.509  1.00  0.00     0.000 A 
HETATM    2  C2  UNL     1     -12.899   6.991   3.010  1.00  0.00     0.001 A 
HETATM    3  C3  UNL     1     -13.602   6.080   3.802  1.00  0.00     0.012 A 
HETATM    4  C4  UNL     1     -14.958   6.279   4.107  1.00  0.00    -0.026 A 
HETATM    5  C5  UNL     1     -15.588   7.425   3.591  1.00  0.00     0.012 A 
HETATM    6  C6  UNL     1     -14.886   8.338   2.798  1.00  0.00     0.001 A 
ENDROOT
BRANCH   4   7
HETATM    7  C7  UNL     1     -15.698   5.319   4.942  1.00  0.00    -0.026 A 
HETATM    8  C8  UNL     1     -15.783   3.963   4.584  1.00  0.00     0.012 A 
HETATM    9  C9  UNL     1     -16.486   3.050   5.376  1.00  0.00     0.001 A 
HETATM   10  C10 UNL     1     -17.115   3.479   6.541  1.00  0.00     0.000 A 
HETATM   11  C11 UNL     1     -17.044   4.818   6.915  1.00  0.00     0.001 A 
HETATM   12  C12 UNL     1     -16.342   5.729   6.121  1.00  0.00     0.012 A 
ENDBRANCH   4   7
TORSDOF 1
ENDMDL
MODEL 4
REMARK VINA RESULT:      -5.7      1.672      5.451
REMARK  1 active torsions:
REMARK  status: ('A' for Active; 'I' for Inactive)
REMARK    1  A    between atoms: C4_4  and  C7_7 
ROOT
HETATM    1  C1  UNL     1     -17.268   0.874   5.404  1.00  0.00     0.000 A 
HETATM    2  C2  UNL     1     -17.815   2.115   5.718  1.00  0.00     0.001 A 
HETATM    3  C3  UNL     1     -17.153   3.287   5.342  1.00  0.00     0.012 A 
HETATM    4  C4  UNL     1     -15.934   3.239   4.646  1.00  0.00    -0.026 A 
HETATM    5  C5  UNL     1     -15.399   1.976   4.339  1.00  0.00     0.012 A 
HETATM    6  C6  UNL     1     -16.060   0.803   4.715  1.00  0.00     0.001 A 
ENDROOT
BRANCH   4   7
HETATM    7  C7  UNL     1     -15.236   4.474   4.250  1.00  0.00    -0.026 A 
HETATM    8  C8  UNL     1     -13.988   4.426   3.607  1.00  0.00     0.012 A 
HETATM    9  C9  UNL     1     -13.324   5.598   3.231  1.00  0.00     0.001 A 
HETATM   10  C10 UNL     1     -13.901   6.838   3.491  1.00  0.00     0.000 A 
HETATM   11  C11 UNL     1     -15.138   6.909   4.126  1.00  0.00     0.001 A 
HETATM   12  C12 UNL     1     -15.798   5.736   4.503  1.00  0.00     0.012 A 
ENDBRANCH   4   7
TORSDOF 1
ENDMDL
MODEL 5
REMARK VINA RESULT:      -5.7      1.688      2.680
REMARK  1 active torsions:
REMARK  status: ('A' for Active; 'I' for Inactive)
REMARK    1  A    between atoms: C4_4  and  C7_7 
ROOT
HETATM    1  C1  UNL     1     -13.852   6.826   3.583  1.00  0.00     0.000 A 
HETATM    2  C2  UNL     1     -13.305   5.591   3.248  1.00  0.00     0.001 A 
HETATM    3  C3  UNL     1     -13.971   4.412   3.594  1.00  0.00     0.012 A 
HETATM    4  C4  UNL     1     -15.196   4.447   4.282  1.00  0.00    -0.026 A 
HETATM    5  C5  UNL     1     -15.730   5.705   4.611  1.00  0.00     0.012 A 
HETATM    6  C6  UNL     1     -15.065   6.884   4.265  1.00  0.00     0.001 A 
ENDROOT
BRANCH   4   7
HETATM    7  C7  UNL     1     -15.897   3.205   4.647  1.00  0.00    -0.026 A 
HETATM    8  C8  UNL     1     -15.349   1.948   4.341  1.00  0.00     0.012 A 
HETATM    9  C9  UNL     1     -16.014   0.768   4.687  1.00  0.00     0.001 A 
HETATM   10  C10 UNL     1     -17.240   0.827   5.346  1.00  0.00     0.000 A 
HETATM   11  C11 UNL     1     -17.800   2.062   5.659  1.00  0.00     0.001 A 
HETATM   12  C12 UNL     1     -17.134   3.241   5.310  1.00  0.00     0.012 A 
ENDBRANCH   4   7
TORSDOF 1
ENDMDL
MODEL 6
REMARK VINA RESULT:      -5.7      2.330      5.430
REMARK  1 active torsions:
REMARK  status: ('A' for Active; 'I' for Inactive)
REMARK    1  A    between atoms: C4_4  and  C7_7 
ROOT
HETATM    1  C1  UNL     1     -15.158  -0.769   3.648  1.00  0.00     0.000 A 
HETATM    2  C2  UNL     1     -15.904  -0.620   4.814  1.00  0.00     0.001 A 
HETATM    3  C3  UNL     1     -16.170   0.657   5.316  1.00  0.00     0.012 A 
HETATM    4  C4  UNL     1     -15.694   1.807   4.663  1.00  0.00    -0.026 A 
HETATM    5  C5  UNL     1     -14.941   1.633   3.489  1.00  0.00     0.012 A 
HETATM    6  C6  UNL     1     -14.675   0.357   2.985  1.00  0.00     0.001 A 
ENDROOT
BRANCH   4   7
HETATM    7  C7  UNL     1     -15.973   3.151   5.193  1.00  0.00    -0.026 A 
HETATM    8  C8  UNL     1     -16.695   3.324   6.387  1.00  0.00     0.012 A 
HETATM    9  C9  UNL     1     -16.961   4.600   6.891  1.00  0.00     0.001 A 
HETATM   10  C10 UNL     1     -16.508   5.727   6.209  1.00  0.00     0.000 A 
HETATM   11  C11 UNL     1     -15.790   5.579   5.025  1.00  0.00     0.001 A 
HETATM   12  C12 UNL     1     -15.527   4.302   4.522  1.00  0.00     0.012 A 
ENDBRANCH   4   7
TORSDOF 1
ENDMDL
MODEL 7
REMARK VINA RESULT:      -5.7      2.278      4.289
REMARK  1 active torsions:
REMARK  status: ('A' for Active; 'I' for Inactive)
REMARK    1  A    between atoms: C4_4  and  C7_7 
ROOT
HETATM    1  C1  UNL     1     -16.625   5.754   6.345  1.00  0.00     0.000 A 
HETATM    2  C2  UNL     1     -17.014   4.591   7.004  1.00  0.00     0.001 A 
HETATM    3  C3  UNL     1     -16.708   3.342   6.458  1.00  0.00     0.012 A 
HETATM    4  C4  UNL     1     -16.009   3.232   5.245  1.00  0.00    -0.026 A 
HETATM    5  C5  UNL     1     -15.626   4.419   4.596  1.00  0.00     0.012 A 
HETATM    6  C6  UNL     1     -15.932   5.670   5.141  1.00  0.00     0.001 A 
ENDROOT
BRANCH   4   7
HETATM    7  C7  UNL     1     -15.687   1.916   4.670  1.00  0.00    -0.026 A 
HETATM    8  C8  UNL     1     -16.342   0.753   5.110  1.00  0.00     0.012 A 
HETATM    9  C9  UNL     1     -16.037  -0.497   4.565  1.00  0.00     0.001 A 
HETATM   10  C10 UNL     1     -15.071  -0.605   3.569  1.00  0.00     0.000 A 
HETATM   11  C11 UNL     1     -14.409   0.533   3.117  1.00  0.00     0.001 A 
HETATM   12  C12 UNL     1     -14.715   1.783   3.665  1.00  0.00     0.012 A 
ENDBRANCH   4   7
TORSDOF 1
ENDMDL
MODEL 8
REMARK VINA RESULT:      -5.5      2.140      4.210
REMARK  1 active torsions:
REMARK  status: ('A' for Active; 'I' for Inactive)
REMARK    1  A    between atoms: C4_4  and  C7_7 
ROOT
HETATM    1  C1  UNL     1     -12.293  11.882   1.761  1.00  0.00     0.000 A 
HETATM    2  C2  UNL     1     -12.891  12.009   3.012  1.00  0.00     0.001 A 
HETATM    3  C3  UNL     1     -13.474  10.897   3.625  1.00  0.00     0.012 A 
HETATM    4  C4  UNL     1     -13.471   9.639   2.999  1.00  0.00    -0.026 A 
HETATM    5  C5  UNL     1     -12.863   9.534   1.736  1.00  0.00     0.012 A 
HETATM    6  C6  UNL     1     -12.279  10.645   1.121  1.00  0.00     0.001 A 
ENDROOT
BRANCH   4   7
HETATM    7  C7  UNL     1     -14.086   8.468   3.644  1.00  0.00    -0.026 A 
HETATM    8  C8  UNL     1     -13.504   7.877   4.779  1.00  0.00     0.012 A 
HETATM    9  C9  UNL     1     -14.086   6.765   5.393  1.00  0.00     0.001 A 
HETATM   10  C10 UNL     1     -15.264   6.225   4.882  1.00  0.00     0.000 A 
HETATM   11  C11 UNL     1     -15.859   6.795   3.760  1.00  0.00     0.001 A 
HETATM   12  C12 UNL     1     -15.273   7.906   3.146  1.00  0.00     0.012 A 
ENDBRANCH   4   7
TORSDOF 1
ENDMDL
MODEL 9
REMARK VINA RESULT:      -5.3      1.492      5.255
REMARK  1 active torsions:
REMARK  status: ('A' for Active; 'I' for Inactive)
REMARK    1  A    between atoms: C4_4  and  C7_7 
ROOT
HETATM    1  C1  UNL     1     -15.983   2.604   5.109  1.00  0.00     0.000 A 
HETATM    2  C2  UNL     1     -16.585   3.818   5.430  1.00  0.00     0.001 A 
HETATM    3  C3  UNL     1     -16.083   5.009   4.899  1.00  0.00     0.012 A 
HETATM    4  C4  UNL     1     -14.972   5.009   4.040  1.00  0.00    -0.026 A 
HETATM    5  C5  UNL     1     -14.379   3.773   3.730  1.00  0.00     0.012 A 
HETATM    6  C6  UNL     1     -14.880   2.580   4.260  1.00  0.00     0.001 A 
ENDROOT
BRANCH   4   7
HETATM    7  C7  UNL     1     -14.444   6.264   3.481  1.00  0.00    -0.026 A 
HETATM    8  C8  UNL     1     -13.149   6.327   2.939  1.00  0.00     0.012 A 
HETATM    9  C9  UNL     1     -12.646   7.519   2.408  1.00  0.00     0.001 A 
HETATM   10  C10 UNL     1     -13.431   8.668   2.411  1.00  0.00     0.000 A 
HETATM   11  C11 UNL     1     -14.717   8.629   2.943  1.00  0.00     0.001 A 
HETATM   12  C12 UNL     1     -15.218   7.437   3.474  1.00  0.00     0.012 A 
ENDBRANCH   4   7
TORSDOF 1
ENDMDL
