MODEL 1
REMARK VINA RESULT:      -4.6      0.000      0.000
REMARK  1 active torsions:
REMARK  status: ('A' for Active; 'I' for Inactive)
REMARK    1  A    between atoms: C2_2  and  C3_3 
ROOT
HETATM    1  C3  UNL     1     -16.678   3.083   5.547  1.00  0.00    -0.059 A 
HETATM    2  C4  UNL     1     -15.849   3.741   4.629  1.00  0.00     0.007 A 
HETATM    3  C5  UNL     1     -15.552   5.095   4.788  1.00  0.00     0.001 A 
HETATM    4  C6  UNL     1     -16.076   5.803   5.869  1.00  0.00     0.000 A 
HETATM    5  C7  UNL     1     -16.896   5.157   6.791  1.00  0.00     0.001 A 
HETATM    6  C8  UNL     1     -17.194   3.802   6.634  1.00  0.00     0.007 A 
ENDROOT
BRANCH   1   7
HETATM    7  C2  UNL     1     -16.985   1.617   5.386  1.00  0.00     0.034 C 
HETATM    8  C1  UNL     1     -18.469   1.369   5.165  1.00  0.00     0.010 C 
ENDBRANCH   1   7
TORSDOF 1
ENDMDL
MODEL 2
REMARK VINA RESULT:      -4.6      0.051      1.708
REMARK  1 active torsions:
REMARK  status: ('A' for Active; 'I' for Inactive)
REMARK    1  A    between atoms: C2_2  and  C3_3 
ROOT
HETATM    1  C3  UNL     1     -16.626   3.087   5.517  1.00  0.00    -0.059 A 
HETATM    2  C4  UNL     1     -17.163   3.779   6.610  1.00  0.00     0.007 A 
HETATM    3  C5  UNL     1     -16.886   5.136   6.792  1.00  0.00     0.001 A 
HETATM    4  C6  UNL     1     -16.077   5.812   5.881  1.00  0.00     0.000 A 
HETATM    5  C7  UNL     1     -15.544   5.134   4.787  1.00  0.00     0.001 A 
HETATM    6  C8  UNL     1     -15.819   3.778   4.603  1.00  0.00     0.007 A 
ENDROOT
BRANCH   1   7
HETATM    7  C2  UNL     1     -16.938   1.627   5.310  1.00  0.00     0.034 C 
HETATM    8  C1  UNL     1     -18.432   1.381   5.169  1.00  0.00     0.010 C 
ENDBRANCH   1   7
TORSDOF 1
ENDMDL
MODEL 3
REMARK VINA RESULT:      -4.5      1.172      2.154
REMARK  1 active torsions:
REMARK  status: ('A' for Active; 'I' for Inactive)
REMARK    1  A    between atoms: C2_2  and  C3_3 
ROOT
HETATM    1  C3  UNL     1     -16.972   3.364   6.258  1.00  0.00    -0.059 A 
HETATM    2  C4  UNL     1     -17.058   4.599   6.915  1.00  0.00     0.007 A 
HETATM    3  C5  UNL     1     -16.439   5.730   6.378  1.00  0.00     0.001 A 
HETATM    4  C6  UNL     1     -15.734   5.638   5.180  1.00  0.00     0.000 A 
HETATM    5  C7  UNL     1     -15.648   4.416   4.515  1.00  0.00     0.001 A 
HETATM    6  C8  UNL     1     -16.266   3.284   5.049  1.00  0.00     0.007 A 
ENDROOT
BRANCH   1   7
HETATM    7  C2  UNL     1     -17.654   2.147   6.826  1.00  0.00     0.034 C 
HETATM    8  C1  UNL     1     -17.987   2.321   8.300  1.00  0.00     0.010 C 
ENDBRANCH   1   7
TORSDOF 1
ENDMDL
MODEL 4
REMARK VINA RESULT:      -4.5      1.113      3.583
REMARK  1 active torsions:
REMARK  status: ('A' for Active; 'I' for Inactive)
REMARK    1  A    between atoms: C2_2  and  C3_3 
ROOT
HETATM    1  C3  UNL     1     -15.954   5.351   5.156  1.00  0.00    -0.059 A 
HETATM    2  C4  UNL     1     -16.060   4.074   4.587  1.00  0.00     0.007 A 
HETATM    3  C5  UNL     1     -16.733   3.054   5.261  1.00  0.00     0.001 A 
HETATM    4  C6  UNL     1     -17.310   3.300   6.505  1.00  0.00     0.000 A 
HETATM    5  C7  UNL     1     -17.216   4.568   7.076  1.00  0.00     0.001 A 
HETATM    6  C8  UNL     1     -16.544   5.590   6.404  1.00  0.00     0.007 A 
ENDROOT
BRANCH   1   7
HETATM    7  C2  UNL     1     -15.243   6.458   4.421  1.00  0.00     0.034 C 
HETATM    8  C1  UNL     1     -14.082   7.019   5.228  1.00  0.00     0.010 C 
ENDBRANCH   1   7
TORSDOF 1
ENDMDL
MODEL 5
REMARK VINA RESULT:      -4.4      1.024      3.481
REMARK  1 active torsions:
REMARK  status: ('A' for Active; 'I' for Inactive)
REMARK    1  A    between atoms: C2_2  and  C3_3 
ROOT
HETATM    1  C3  UNL     1     -16.394   3.436   5.098  1.00  0.00    -0.059 A 
HETATM    2  C4  UNL     1     -15.416   2.630   4.499  1.00  0.00     0.007 A 
HETATM    3  C5  UNL     1     -15.643   1.266   4.310  1.00  0.00     0.001 A 
HETATM    4  C6  UNL     1     -16.849   0.696   4.712  1.00  0.00     0.000 A 
HETATM    5  C7  UNL     1     -17.831   1.489   5.303  1.00  0.00     0.001 A 
HETATM    6  C8  UNL     1     -17.607   2.854   5.492  1.00  0.00     0.007 A 
ENDROOT
BRANCH   1   7
HETATM    7  C2  UNL     1     -16.158   4.912   5.286  1.00  0.00     0.034 C 
HETATM    8  C1  UNL     1     -16.656   5.398   6.638  1.00  0.00     0.010 C 
ENDBRANCH   1   7
TORSDOF 1
ENDMDL
MODEL 6
REMARK VINA RESULT:      -4.4      0.952      3.702
REMARK  1 active torsions:
REMARK  status: ('A' for Active; 'I' for Inactive)
REMARK    1  A    between atoms: C2_2  and  C3_3 
ROOT
HETATM    1  C3  UNL     1     -16.520   4.509   6.007  1.00  0.00    -0.059 A 
HETATM    2  C4  UNL     1     -17.166   4.199   7.212  1.00  0.00     0.007 A 
HETATM    3  C5  UNL     1     -17.700   2.926   7.420  1.00  0.00     0.001 A 
HETATM    4  C6  UNL     1     -17.589   1.952   6.431  1.00  0.00     0.000 A 
HETATM    5  C7  UNL     1     -16.943   2.248   5.232  1.00  0.00     0.001 A 
HETATM    6  C8  UNL     1     -16.408   3.520   5.021  1.00  0.00     0.007 A 
ENDROOT
BRANCH   1   7
HETATM    7  C2  UNL     1     -15.928   5.877   5.788  1.00  0.00     0.034 C 
HETATM    8  C1  UNL     1     -15.671   6.155   4.315  1.00  0.00     0.010 C 
ENDBRANCH   1   7
TORSDOF 1
ENDMDL
MODEL 7
REMARK VINA RESULT:      -4.2      2.774      4.371
REMARK  1 active torsions:
REMARK  status: ('A' for Active; 'I' for Inactive)
REMARK    1  A    between atoms: C2_2  and  C3_3 
ROOT
HETATM    1  C3  UNL     1     -15.248   6.547   4.495  1.00  0.00    -0.059 A 
HETATM    2  C4  UNL     1     -14.143   6.998   5.228  1.00  0.00     0.007 A 
HETATM    3  C5  UNL     1     -13.444   8.136   4.824  1.00  0.00     0.001 A 
HETATM    4  C6  UNL     1     -13.845   8.837   3.688  1.00  0.00     0.000 A 
HETATM    5  C7  UNL     1     -14.947   8.400   2.955  1.00  0.00     0.001 A 
HETATM    6  C8  UNL     1     -15.649   7.262   3.358  1.00  0.00     0.007 A 
ENDROOT
BRANCH   1   7
HETATM    7  C2  UNL     1     -16.015   5.328   4.940  1.00  0.00     0.034 C 
HETATM    8  C1  UNL     1     -16.435   5.425   6.399  1.00  0.00     0.010 C 
ENDBRANCH   1   7
TORSDOF 1
ENDMDL
MODEL 8
REMARK VINA RESULT:      -4.0     12.239     13.687
REMARK  1 active torsions:
REMARK  status: ('A' for Active; 'I' for Inactive)
REMARK    1  A    between atoms: C2_2  and  C3_3 
ROOT
HETATM    1  C3  UNL     1     -16.714  11.468  -4.666  1.00  0.00    -0.059 A 
HETATM    2  C4  UNL     1     -17.797  11.282  -5.535  1.00  0.00     0.007 A 
HETATM    3  C5  UNL     1     -18.218  12.318  -6.371  1.00  0.00     0.001 A 
HETATM    4  C6  UNL     1     -17.559  13.545  -6.349  1.00  0.00     0.000 A 
HETATM    5  C7  UNL     1     -16.477  13.738  -5.493  1.00  0.00     0.001 A 
HETATM    6  C8  UNL     1     -16.053  12.704  -4.657  1.00  0.00     0.007 A 
ENDROOT
BRANCH   1   7
HETATM    7  C2  UNL     1     -16.247  10.345  -3.776  1.00  0.00     0.034 C 
HETATM    8  C1  UNL     1     -14.935   9.747  -4.261  1.00  0.00     0.010 C 
ENDBRANCH   1   7
TORSDOF 1
ENDMDL
MODEL 9
REMARK VINA RESULT:      -3.9     13.727     15.417
REMARK  1 active torsions:
REMARK  status: ('A' for Active; 'I' for Inactive)
REMARK    1  A    between atoms: C2_2  and  C3_3 
ROOT
HETATM    1  C3  UNL     1     -16.799  13.973  -5.839  1.00  0.00    -0.059 A 
HETATM    2  C4  UNL     1     -16.078  13.212  -4.910  1.00  0.00     0.007 A 
HETATM    3  C5  UNL     1     -16.443  11.891  -4.643  1.00  0.00     0.001 A 
HETATM    4  C6  UNL     1     -17.526  11.318  -5.306  1.00  0.00     0.000 A 
HETATM    5  C7  UNL     1     -18.246  12.064  -6.237  1.00  0.00     0.001 A 
HETATM    6  C8  UNL     1     -17.883  13.385  -6.506  1.00  0.00     0.007 A 
ENDROOT
BRANCH   1   7
HETATM    7  C2  UNL     1     -16.396  15.393  -6.141  1.00  0.00     0.034 C 
HETATM    8  C1  UNL     1     -17.010  15.893  -7.440  1.00  0.00     0.010 C 
ENDBRANCH   1   7
TORSDOF 1
ENDMDL
