MODEL 1
REMARK VINA RESULT:      -5.3      0.000      0.000
REMARK  1 active torsions:
REMARK  status: ('A' for Active; 'I' for Inactive)
REMARK    1  A    between atoms: C5_5  and  C8_8 
ROOT
HETATM    1  C1  UNL     1     -14.779   6.969   4.354  1.00  0.00     0.048 C 
HETATM    2  C2  UNL     1     -15.392   5.736   4.944  1.00  0.00    -0.062 A 
HETATM    3  C3  UNL     1     -15.253   4.499   4.306  1.00  0.00     0.007 A 
HETATM    4  C4  UNL     1     -15.850   3.353   4.840  1.00  0.00     0.008 A 
HETATM    5  C5  UNL     1     -16.609   3.422   6.017  1.00  0.00    -0.055 A 
HETATM    6  C6  UNL     1     -16.759   4.667   6.643  1.00  0.00     0.008 A 
HETATM    7  C7  UNL     1     -16.161   5.812   6.109  1.00  0.00     0.007 A 
ENDROOT
BRANCH   5   8
HETATM    8  C8  UNL     1     -17.249   2.164   6.577  1.00  0.00     0.010 C 
HETATM    9  C9  UNL     1     -18.216   1.531   5.574  1.00  0.00     0.015 C 
HETATM   10  C10 UNL     1     -17.946   2.433   7.912  1.00  0.00     0.015 C 
ENDBRANCH   5   8
TORSDOF 1
ENDMDL
MODEL 2
REMARK VINA RESULT:      -5.3      0.054      1.524
REMARK  1 active torsions:
REMARK  status: ('A' for Active; 'I' for Inactive)
REMARK    1  A    between atoms: C5_5  and  C8_8 
ROOT
HETATM    1  C1  UNL     1     -14.788   6.996   4.335  1.00  0.00     0.048 C 
HETATM    2  C2  UNL     1     -15.433   5.760   4.886  1.00  0.00    -0.062 A 
HETATM    3  C3  UNL     1     -16.192   5.819   6.059  1.00  0.00     0.007 A 
HETATM    4  C4  UNL     1     -16.768   4.661   6.590  1.00  0.00     0.008 A 
HETATM    5  C5  UNL     1     -16.588   3.418   5.966  1.00  0.00    -0.055 A 
HETATM    6  C6  UNL     1     -15.812   3.364   4.799  1.00  0.00     0.008 A 
HETATM    7  C7  UNL     1     -15.237   4.521   4.268  1.00  0.00     0.007 A 
ENDROOT
BRANCH   5   8
HETATM    8  C8  UNL     1     -17.223   2.175   6.562  1.00  0.00     0.010 C 
HETATM    9  C9  UNL     1     -18.224   1.537   5.596  1.00  0.00     0.015 C 
HETATM   10  C10 UNL     1     -17.880   2.469   7.912  1.00  0.00     0.015 C 
ENDBRANCH   5   8
TORSDOF 1
ENDMDL
MODEL 3
REMARK VINA RESULT:      -5.2      0.890      4.608
REMARK  1 active torsions:
REMARK  status: ('A' for Active; 'I' for Inactive)
REMARK    1  A    between atoms: C5_5  and  C8_8 
ROOT
HETATM    1  C1  UNL     1     -17.792   2.357   7.374  1.00  0.00     0.048 C 
HETATM    2  C2  UNL     1     -17.006   3.342   6.563  1.00  0.00    -0.062 A 
HETATM    3  C3  UNL     1     -16.956   4.689   6.937  1.00  0.00     0.007 A 
HETATM    4  C4  UNL     1     -16.248   5.615   6.164  1.00  0.00     0.008 A 
HETATM    5  C5  UNL     1     -15.587   5.215   4.994  1.00  0.00    -0.055 A 
HETATM    6  C6  UNL     1     -15.655   3.867   4.616  1.00  0.00     0.008 A 
HETATM    7  C7  UNL     1     -16.361   2.942   5.389  1.00  0.00     0.007 A 
ENDROOT
BRANCH   5   8
HETATM    8  C8  UNL     1     -14.825   6.239   4.170  1.00  0.00     0.010 C 
HETATM    9  C9  UNL     1     -13.702   6.890   4.981  1.00  0.00     0.015 C 
HETATM   10  C10 UNL     1     -15.760   7.299   3.584  1.00  0.00     0.015 C 
ENDBRANCH   5   8
TORSDOF 1
ENDMDL
MODEL 4
REMARK VINA RESULT:      -5.0      2.177      4.109
REMARK  1 active torsions:
REMARK  status: ('A' for Active; 'I' for Inactive)
REMARK    1  A    between atoms: C5_5  and  C8_8 
ROOT
HETATM    1  C1  UNL     1     -13.017  10.132   3.404  1.00  0.00     0.048 C 
HETATM    2  C2  UNL     1     -13.819   8.921   3.774  1.00  0.00    -0.062 A 
HETATM    3  C3  UNL     1     -13.480   8.162   4.899  1.00  0.00     0.007 A 
HETATM    4  C4  UNL     1     -14.209   7.015   5.227  1.00  0.00     0.008 A 
HETATM    5  C5  UNL     1     -15.284   6.596   4.432  1.00  0.00    -0.055 A 
HETATM    6  C6  UNL     1     -15.609   7.352   3.296  1.00  0.00     0.008 A 
HETATM    7  C7  UNL     1     -14.880   8.498   2.968  1.00  0.00     0.007 A 
ENDROOT
BRANCH   5   8
HETATM    8  C8  UNL     1     -16.060   5.346   4.808  1.00  0.00     0.010 C 
HETATM    9  C9  UNL     1     -16.402   5.325   6.300  1.00  0.00     0.015 C 
HETATM   10  C10 UNL     1     -15.313   4.074   4.401  1.00  0.00     0.015 C 
ENDBRANCH   5   8
TORSDOF 1
ENDMDL
MODEL 5
REMARK VINA RESULT:      -4.9      1.447      2.656
REMARK  1 active torsions:
REMARK  status: ('A' for Active; 'I' for Inactive)
REMARK    1  A    between atoms: C5_5  and  C8_8 
ROOT
HETATM    1  C1  UNL     1     -12.763   7.365   2.508  1.00  0.00     0.048 C 
HETATM    2  C2  UNL     1     -13.750   6.495   3.227  1.00  0.00    -0.062 A 
HETATM    3  C3  UNL     1     -13.572   5.109   3.273  1.00  0.00     0.007 A 
HETATM    4  C4  UNL     1     -14.509   4.294   3.917  1.00  0.00     0.008 A 
HETATM    5  C5  UNL     1     -15.647   4.847   4.519  1.00  0.00    -0.055 A 
HETATM    6  C6  UNL     1     -15.828   6.236   4.455  1.00  0.00     0.008 A 
HETATM    7  C7  UNL     1     -14.892   7.050   3.812  1.00  0.00     0.007 A 
ENDROOT
BRANCH   5   8
HETATM    8  C8  UNL     1     -16.650   3.942   5.212  1.00  0.00     0.010 C 
HETATM    9  C9  UNL     1     -16.845   4.338   6.677  1.00  0.00     0.015 C 
HETATM   10  C10 UNL     1     -16.256   2.468   5.093  1.00  0.00     0.015 C 
ENDBRANCH   5   8
TORSDOF 1
ENDMDL
MODEL 6
REMARK VINA RESULT:      -4.7      3.139      5.211
REMARK  1 active torsions:
REMARK  status: ('A' for Active; 'I' for Inactive)
REMARK    1  A    between atoms: C5_5  and  C8_8 
ROOT
HETATM    1  C1  UNL     1     -12.907  11.440   3.170  1.00  0.00     0.048 C 
HETATM    2  C2  UNL     1     -13.253  10.017   3.490  1.00  0.00    -0.062 A 
HETATM    3  C3  UNL     1     -13.634   9.134   2.474  1.00  0.00     0.007 A 
HETATM    4  C4  UNL     1     -13.986   7.815   2.775  1.00  0.00     0.008 A 
HETATM    5  C5  UNL     1     -13.977   7.354   4.099  1.00  0.00    -0.055 A 
HETATM    6  C6  UNL     1     -13.610   8.249   5.115  1.00  0.00     0.008 A 
HETATM    7  C7  UNL     1     -13.258   9.567   4.814  1.00  0.00     0.007 A 
ENDROOT
BRANCH   5   8
HETATM    8  C8  UNL     1     -14.364   5.918   4.402  1.00  0.00     0.010 C 
HETATM    9  C9  UNL     1     -13.705   4.941   3.425  1.00  0.00     0.015 C 
HETATM   10  C10 UNL     1     -15.883   5.735   4.416  1.00  0.00     0.015 C 
ENDBRANCH   5   8
TORSDOF 1
ENDMDL
MODEL 7
REMARK VINA RESULT:      -4.6      2.126      2.915
REMARK  1 active torsions:
REMARK  status: ('A' for Active; 'I' for Inactive)
REMARK    1  A    between atoms: C5_5  and  C8_8 
ROOT
HETATM    1  C1  UNL     1     -15.664   6.083   4.771  1.00  0.00     0.048 C 
HETATM    2  C2  UNL     1     -15.671   4.588   4.665  1.00  0.00    -0.062 A 
HETATM    3  C3  UNL     1     -14.689   3.924   3.922  1.00  0.00     0.007 A 
HETATM    4  C4  UNL     1     -14.713   2.532   3.797  1.00  0.00     0.008 A 
HETATM    5  C5  UNL     1     -15.725   1.775   4.403  1.00  0.00    -0.055 A 
HETATM    6  C6  UNL     1     -16.717   2.447   5.132  1.00  0.00     0.008 A 
HETATM    7  C7  UNL     1     -16.693   3.839   5.257  1.00  0.00     0.007 A 
ENDROOT
BRANCH   5   8
HETATM    8  C8  UNL     1     -15.731   0.264   4.253  1.00  0.00     0.010 C 
HETATM    9  C9  UNL     1     -15.807  -0.436   5.612  1.00  0.00     0.015 C 
HETATM   10  C10 UNL     1     -14.521  -0.227   3.454  1.00  0.00     0.015 C 
ENDBRANCH   5   8
TORSDOF 1
ENDMDL
MODEL 8
REMARK VINA RESULT:      -4.6      1.623      2.611
REMARK  1 active torsions:
REMARK  status: ('A' for Active; 'I' for Inactive)
REMARK    1  A    between atoms: C5_5  and  C8_8 
ROOT
HETATM    1  C1  UNL     1     -14.465   7.120   3.771  1.00  0.00     0.048 C 
HETATM    2  C2  UNL     1     -14.906   5.719   4.070  1.00  0.00    -0.062 A 
HETATM    3  C3  UNL     1     -16.036   5.484   4.860  1.00  0.00     0.007 A 
HETATM    4  C4  UNL     1     -16.430   4.177   5.165  1.00  0.00     0.008 A 
HETATM    5  C5  UNL     1     -15.696   3.079   4.695  1.00  0.00    -0.055 A 
HETATM    6  C6  UNL     1     -14.555   3.321   3.917  1.00  0.00     0.008 A 
HETATM    7  C7  UNL     1     -14.161   4.627   3.613  1.00  0.00     0.007 A 
ENDROOT
BRANCH   5   8
HETATM    8  C8  UNL     1     -16.143   1.669   5.040  1.00  0.00     0.010 C 
HETATM    9  C9  UNL     1     -15.550   1.201   6.371  1.00  0.00     0.015 C 
HETATM   10  C10 UNL     1     -15.813   0.683   3.917  1.00  0.00     0.015 C 
ENDBRANCH   5   8
TORSDOF 1
ENDMDL
MODEL 9
REMARK VINA RESULT:      -4.5     13.833     15.388
REMARK  1 active torsions:
REMARK  status: ('A' for Active; 'I' for Inactive)
REMARK    1  A    between atoms: C5_5  and  C8_8 
ROOT
HETATM    1  C1  UNL     1     -18.512  12.475  -7.074  1.00  0.00     0.048 C 
HETATM    2  C2  UNL     1     -17.488  13.189  -6.245  1.00  0.00    -0.062 A 
HETATM    3  C3  UNL     1     -16.860  12.540  -5.178  1.00  0.00     0.007 A 
HETATM    4  C4  UNL     1     -15.927  13.216  -4.385  1.00  0.00     0.008 A 
HETATM    5  C5  UNL     1     -15.611  14.558  -4.637  1.00  0.00    -0.055 A 
HETATM    6  C6  UNL     1     -16.256  15.209  -5.698  1.00  0.00     0.008 A 
HETATM    7  C7  UNL     1     -17.188  14.533  -6.490  1.00  0.00     0.007 A 
ENDROOT
BRANCH   5   8
HETATM    8  C8  UNL     1     -14.595  15.271  -3.762  1.00  0.00     0.010 C 
HETATM    9  C9  UNL     1     -15.242  15.838  -2.496  1.00  0.00     0.015 C 
HETATM   10  C10 UNL     1     -13.856  16.366  -4.534  1.00  0.00     0.015 C 
ENDBRANCH   5   8
TORSDOF 1
ENDMDL
