MODEL 1
REMARK VINA RESULT:      -3.7      0.000      0.000
REMARK  0 active torsions:
REMARK  status: ('A' for Active; 'I' for Inactive)
ROOT
HETATM    1  C1  UNL     1     -16.097   3.525   4.829  1.00  0.00     0.000 A 
HETATM    2  C2  UNL     1     -15.690   4.851   4.683  1.00  0.00     0.000 A 
HETATM    3  C3  UNL     1     -16.039   5.798   5.646  1.00  0.00     0.000 A 
HETATM    4  C4  UNL     1     -16.796   5.418   6.756  1.00  0.00     0.000 A 
HETATM    5  C5  UNL     1     -17.203   4.092   6.902  1.00  0.00     0.000 A 
HETATM    6  C6  UNL     1     -16.853   3.145   5.938  1.00  0.00     0.000 A 
ENDROOT
TORSDOF 0
ENDMDL
MODEL 2
REMARK VINA RESULT:      -3.7      0.039      1.973
REMARK  0 active torsions:
REMARK  status: ('A' for Active; 'I' for Inactive)
ROOT
HETATM    1  C1  UNL     1     -16.771   5.458   6.742  1.00  0.00     0.000 A 
HETATM    2  C2  UNL     1     -16.005   5.819   5.634  1.00  0.00     0.000 A 
HETATM    3  C3  UNL     1     -15.670   4.863   4.675  1.00  0.00     0.000 A 
HETATM    4  C4  UNL     1     -16.101   3.544   4.825  1.00  0.00     0.000 A 
HETATM    5  C5  UNL     1     -16.867   3.182   5.933  1.00  0.00     0.000 A 
HETATM    6  C6  UNL     1     -17.202   4.139   6.892  1.00  0.00     0.000 A 
ENDROOT
TORSDOF 0
ENDMDL
MODEL 3
REMARK VINA RESULT:      -3.7      0.032      2.790
REMARK  0 active torsions:
REMARK  status: ('A' for Active; 'I' for Inactive)
ROOT
HETATM    1  C1  UNL     1     -16.812   5.419   6.768  1.00  0.00     0.000 A 
HETATM    2  C2  UNL     1     -17.217   4.094   6.925  1.00  0.00     0.000 A 
HETATM    3  C3  UNL     1     -16.876   3.142   5.963  1.00  0.00     0.000 A 
HETATM    4  C4  UNL     1     -16.132   3.517   4.844  1.00  0.00     0.000 A 
HETATM    5  C5  UNL     1     -15.727   4.843   4.687  1.00  0.00     0.000 A 
HETATM    6  C6  UNL     1     -16.068   5.794   5.649  1.00  0.00     0.000 A 
ENDROOT
TORSDOF 0
ENDMDL
MODEL 4
REMARK VINA RESULT:      -3.7      0.101      1.975
REMARK  0 active torsions:
REMARK  status: ('A' for Active; 'I' for Inactive)
ROOT
HETATM    1  C1  UNL     1     -16.050   5.720   5.681  1.00  0.00     0.000 A 
HETATM    2  C2  UNL     1     -15.710   4.754   4.733  1.00  0.00     0.000 A 
HETATM    3  C3  UNL     1     -16.163   3.443   4.881  1.00  0.00     0.000 A 
HETATM    4  C4  UNL     1     -16.955   3.098   5.977  1.00  0.00     0.000 A 
HETATM    5  C5  UNL     1     -17.294   4.064   6.924  1.00  0.00     0.000 A 
HETATM    6  C6  UNL     1     -16.842   5.375   6.777  1.00  0.00     0.000 A 
ENDROOT
TORSDOF 0
ENDMDL
MODEL 5
REMARK VINA RESULT:      -3.4      1.755      3.488
REMARK  0 active torsions:
REMARK  status: ('A' for Active; 'I' for Inactive)
ROOT
HETATM    1  C1  UNL     1     -16.213   3.482   5.078  1.00  0.00     0.000 A 
HETATM    2  C2  UNL     1     -17.475   3.100   5.533  1.00  0.00     0.000 A 
HETATM    3  C3  UNL     1     -17.894   1.776   5.400  1.00  0.00     0.000 A 
HETATM    4  C4  UNL     1     -17.050   0.834   4.812  1.00  0.00     0.000 A 
HETATM    5  C5  UNL     1     -15.788   1.215   4.357  1.00  0.00     0.000 A 
HETATM    6  C6  UNL     1     -15.369   2.539   4.490  1.00  0.00     0.000 A 
ENDROOT
TORSDOF 0
ENDMDL
MODEL 6
REMARK VINA RESULT:      -3.3      1.829      3.360
REMARK  0 active torsions:
REMARK  status: ('A' for Active; 'I' for Inactive)
ROOT
HETATM    1  C1  UNL     1     -17.844   1.494   5.293  1.00  0.00     0.000 A 
HETATM    2  C2  UNL     1     -16.872   0.715   4.666  1.00  0.00     0.000 A 
HETATM    3  C3  UNL     1     -15.658   1.288   4.286  1.00  0.00     0.000 A 
HETATM    4  C4  UNL     1     -15.416   2.640   4.533  1.00  0.00     0.000 A 
HETATM    5  C5  UNL     1     -16.389   3.418   5.161  1.00  0.00     0.000 A 
HETATM    6  C6  UNL     1     -17.602   2.846   5.541  1.00  0.00     0.000 A 
ENDROOT
TORSDOF 0
ENDMDL
MODEL 7
REMARK VINA RESULT:      -3.2     12.750     13.956
REMARK  0 active torsions:
REMARK  status: ('A' for Active; 'I' for Inactive)
ROOT
HETATM    1  C1  UNL     1     -15.972  12.579  -4.550  1.00  0.00     0.000 A 
HETATM    2  C2  UNL     1     -16.650  11.360  -4.583  1.00  0.00     0.000 A 
HETATM    3  C3  UNL     1     -17.750  11.197  -5.424  1.00  0.00     0.000 A 
HETATM    4  C4  UNL     1     -18.173  12.252  -6.233  1.00  0.00     0.000 A 
HETATM    5  C5  UNL     1     -17.496  13.471  -6.200  1.00  0.00     0.000 A 
HETATM    6  C6  UNL     1     -16.395  13.634  -5.359  1.00  0.00     0.000 A 
ENDROOT
TORSDOF 0
ENDMDL
MODEL 8
REMARK VINA RESULT:      -3.2     12.765     13.847
REMARK  0 active torsions:
REMARK  status: ('A' for Active; 'I' for Inactive)
ROOT
HETATM    1  C1  UNL     1     -15.973  12.603  -4.566  1.00  0.00     0.000 A 
HETATM    2  C2  UNL     1     -16.405  13.650  -5.380  1.00  0.00     0.000 A 
HETATM    3  C3  UNL     1     -17.509  13.473  -6.215  1.00  0.00     0.000 A 
HETATM    4  C4  UNL     1     -18.179  12.250  -6.236  1.00  0.00     0.000 A 
HETATM    5  C5  UNL     1     -17.747  11.203  -5.422  1.00  0.00     0.000 A 
HETATM    6  C6  UNL     1     -16.643  11.380  -4.587  1.00  0.00     0.000 A 
ENDROOT
TORSDOF 0
ENDMDL
MODEL 9
REMARK VINA RESULT:      -3.2     12.827     13.892
REMARK  0 active torsions:
REMARK  status: ('A' for Active; 'I' for Inactive)
ROOT
HETATM    1  C1  UNL     1     -17.768  11.238  -5.508  1.00  0.00     0.000 A 
HETATM    2  C2  UNL     1     -18.186  12.302  -6.308  1.00  0.00     0.000 A 
HETATM    3  C3  UNL     1     -17.513  13.522  -6.254  1.00  0.00     0.000 A 
HETATM    4  C4  UNL     1     -16.421  13.679  -5.399  1.00  0.00     0.000 A 
HETATM    5  C5  UNL     1     -16.003  12.616  -4.599  1.00  0.00     0.000 A 
HETATM    6  C6  UNL     1     -16.677  11.395  -4.653  1.00  0.00     0.000 A 
ENDROOT
TORSDOF 0
ENDMDL
