MODEL 1
REMARK VINA RESULT:      -2.8      0.000      0.000
REMARK  1 active torsions:
REMARK  status: ('A' for Active; 'I' for Inactive)
REMARK    1  A    between atoms: C2_2  and  O1_4 
ROOT
HETATM    1  C1  UNL     1     -25.984   9.741  -5.023  1.00  0.00     0.039 C 
HETATM    2  C2  UNL     1     -27.417  10.243  -4.925  1.00  0.00     0.110 C 
HETATM    3  C3  UNL     1     -28.423   9.107  -5.020  1.00  0.00     0.039 C 
ENDROOT
BRANCH   2   4
HETATM    4  O1  UNL     1     -27.592  10.921  -3.685  1.00  0.00    -0.396 OA
HETATM    5  H8  UNL     1     -27.235  11.821  -3.782  1.00  0.00     0.209 HD
ENDBRANCH   2   4
TORSDOF 1
ENDMDL
MODEL 2
REMARK VINA RESULT:      -2.8     16.832     16.979
REMARK  1 active torsions:
REMARK  status: ('A' for Active; 'I' for Inactive)
REMARK    1  A    between atoms: C2_2  and  O1_4 
ROOT
HETATM    1  C1  UNL     1     -12.139  11.374   1.381  1.00  0.00     0.039 C 
HETATM    2  C2  UNL     1     -12.352  11.811   2.822  1.00  0.00     0.110 C 
HETATM    3  C3  UNL     1     -13.344  10.914   3.547  1.00  0.00     0.039 C 
ENDROOT
BRANCH   2   4
HETATM    4  O1  UNL     1     -11.105  11.781   3.509  1.00  0.00    -0.396 OA
HETATM    5  H8  UNL     1     -11.183  11.148   4.244  1.00  0.00     0.209 HD
ENDBRANCH   2   4
TORSDOF 1
ENDMDL
MODEL 3
REMARK VINA RESULT:      -2.6     10.471     11.250
REMARK  1 active torsions:
REMARK  status: ('A' for Active; 'I' for Inactive)
REMARK    1  A    between atoms: C2_2  and  O1_4 
ROOT
HETATM    1  C1  UNL     1     -14.973   9.752  -4.295  1.00  0.00     0.039 C 
HETATM    2  C2  UNL     1     -16.031  10.725  -3.797  1.00  0.00     0.110 C 
HETATM    3  C3  UNL     1     -17.153  10.910  -4.807  1.00  0.00     0.039 C 
ENDROOT
BRANCH   2   4
HETATM    4  O1  UNL     1     -16.577  10.239  -2.575  1.00  0.00    -0.396 OA
HETATM    5  H8  UNL     1     -17.514  10.496  -2.542  1.00  0.00     0.209 HD
ENDBRANCH   2   4
TORSDOF 1
ENDMDL
MODEL 4
REMARK VINA RESULT:      -2.5     10.249     11.172
REMARK  1 active torsions:
REMARK  status: ('A' for Active; 'I' for Inactive)
REMARK    1  A    between atoms: C2_2  and  O1_4 
ROOT
HETATM    1  C1  UNL     1     -17.422  10.895  -4.923  1.00  0.00     0.039 C 
HETATM    2  C2  UNL     1     -16.222  10.704  -4.008  1.00  0.00     0.110 C 
HETATM    3  C3  UNL     1     -15.492  12.013  -3.749  1.00  0.00     0.039 C 
ENDROOT
BRANCH   2   4
HETATM    4  O1  UNL     1     -16.661  10.160  -2.767  1.00  0.00    -0.396 OA
HETATM    5  H8  UNL     1     -17.579  10.447  -2.622  1.00  0.00     0.209 HD
ENDBRANCH   2   4
TORSDOF 1
ENDMDL
MODEL 5
REMARK VINA RESULT:      -2.5     16.539     16.817
REMARK  1 active torsions:
REMARK  status: ('A' for Active; 'I' for Inactive)
REMARK    1  A    between atoms: C2_2  and  O1_4 
ROOT
HETATM    1  C1  UNL     1     -16.636   5.333   6.631  1.00  0.00     0.039 C 
HETATM    2  C2  UNL     1     -16.845   3.847   6.877  1.00  0.00     0.110 C 
HETATM    3  C3  UNL     1     -17.276   3.118   5.614  1.00  0.00     0.039 C 
ENDROOT
BRANCH   2   4
HETATM    4  O1  UNL     1     -15.631   3.276   7.355  1.00  0.00    -0.396 OA
HETATM    5  H8  UNL     1     -14.968   3.345   6.647  1.00  0.00     0.209 HD
ENDBRANCH   2   4
TORSDOF 1
ENDMDL
MODEL 6
REMARK VINA RESULT:      -2.5      1.449      2.119
REMARK  1 active torsions:
REMARK  status: ('A' for Active; 'I' for Inactive)
REMARK    1  A    between atoms: C2_2  and  O1_4 
ROOT
HETATM    1  C1  UNL     1     -27.677  10.911  -3.818  1.00  0.00     0.039 C 
HETATM    2  C2  UNL     1     -27.429  10.102  -5.082  1.00  0.00     0.110 C 
HETATM    3  C3  UNL     1     -26.027   9.512  -5.112  1.00  0.00     0.039 C 
ENDROOT
BRANCH   2   4
HETATM    4  O1  UNL     1     -28.382   9.047  -5.158  1.00  0.00    -0.396 OA
HETATM    5  H8  UNL     1     -27.906   8.228  -5.381  1.00  0.00     0.209 HD
ENDBRANCH   2   4
TORSDOF 1
ENDMDL
MODEL 7
REMARK VINA RESULT:      -2.4     14.714     14.970
REMARK  1 active torsions:
REMARK  status: ('A' for Active; 'I' for Inactive)
REMARK    1  A    between atoms: C2_2  and  O1_4 
ROOT
HETATM    1  C1  UNL     1     -13.898   9.762   3.538  1.00  0.00     0.039 C 
HETATM    2  C2  UNL     1     -14.385   8.570   2.728  1.00  0.00     0.110 C 
HETATM    3  C3  UNL     1     -14.750   7.391   3.616  1.00  0.00     0.039 C 
ENDROOT
BRANCH   2   4
HETATM    4  O1  UNL     1     -15.526   8.955   1.968  1.00  0.00    -0.396 OA
HETATM    5  H8  UNL     1     -15.289   8.908   1.026  1.00  0.00     0.209 HD
ENDBRANCH   2   4
TORSDOF 1
ENDMDL
MODEL 8
REMARK VINA RESULT:      -2.4     16.536     16.834
REMARK  1 active torsions:
REMARK  status: ('A' for Active; 'I' for Inactive)
REMARK    1  A    between atoms: C2_2  and  O1_4 
ROOT
HETATM    1  C1  UNL     1     -14.056   7.487   3.737  1.00  0.00     0.039 C 
HETATM    2  C2  UNL     1     -14.036   7.058   5.196  1.00  0.00     0.110 C 
HETATM    3  C3  UNL     1     -15.204   6.146   5.536  1.00  0.00     0.039 C 
ENDROOT
BRANCH   2   4
HETATM    4  O1  UNL     1     -12.815   6.377   5.468  1.00  0.00    -0.396 OA
HETATM    5  H8  UNL     1     -12.712   6.320   6.433  1.00  0.00     0.209 HD
ENDBRANCH   2   4
TORSDOF 1
ENDMDL
MODEL 9
REMARK VINA RESULT:      -2.4     16.667     17.173
REMARK  1 active torsions:
REMARK  status: ('A' for Active; 'I' for Inactive)
REMARK    1  A    between atoms: C2_2  and  O1_4 
ROOT
HETATM    1  C1  UNL     1     -17.420   2.933   5.664  1.00  0.00     0.039 C 
HETATM    2  C2  UNL     1     -17.130   3.365   7.093  1.00  0.00     0.110 C 
HETATM    3  C3  UNL     1     -17.833   2.477   8.108  1.00  0.00     0.039 C 
ENDROOT
BRANCH   2   4
HETATM    4  O1  UNL     1     -15.725   3.316   7.322  1.00  0.00    -0.396 OA
HETATM    5  H8  UNL     1     -15.445   4.186   7.655  1.00  0.00     0.209 HD
ENDBRANCH   2   4
TORSDOF 1
ENDMDL
