MODEL 1
REMARK VINA RESULT:      -4.3      0.000      0.000
REMARK  0 active torsions:
REMARK  status: ('A' for Active; 'I' for Inactive)
ROOT
HETATM    1  C1  UNL     1     -17.688   1.853   5.674  1.00  0.00     0.048 C 
HETATM    2  C2  UNL     1     -17.068   3.217   5.744  1.00  0.00    -0.062 A 
HETATM    3  C3  UNL     1     -17.387   4.087   6.795  1.00  0.00     0.007 A 
HETATM    4  C4  UNL     1     -16.835   5.368   6.843  1.00  0.00     0.001 A 
HETATM    5  C5  UNL     1     -15.969   5.794   5.837  1.00  0.00     0.000 A 
HETATM    6  C6  UNL     1     -15.658   4.941   4.780  1.00  0.00     0.001 A 
HETATM    7  C7  UNL     1     -16.209   3.660   4.731  1.00  0.00     0.007 A 
ENDROOT
TORSDOF 0
ENDMDL
MODEL 2
REMARK VINA RESULT:      -4.2      0.778      2.053
REMARK  0 active torsions:
REMARK  status: ('A' for Active; 'I' for Inactive)
ROOT
HETATM    1  C1  UNL     1     -17.641   2.856   7.782  1.00  0.00     0.048 C 
HETATM    2  C2  UNL     1     -16.975   3.648   6.696  1.00  0.00    -0.062 A 
HETATM    3  C3  UNL     1     -16.416   3.001   5.586  1.00  0.00     0.007 A 
HETATM    4  C4  UNL     1     -15.768   3.735   4.592  1.00  0.00     0.001 A 
HETATM    5  C5  UNL     1     -15.662   5.121   4.704  1.00  0.00     0.000 A 
HETATM    6  C6  UNL     1     -16.202   5.772   5.812  1.00  0.00     0.001 A 
HETATM    7  C7  UNL     1     -16.850   5.039   6.806  1.00  0.00     0.007 A 
ENDROOT
TORSDOF 0
ENDMDL
MODEL 3
REMARK VINA RESULT:      -4.1      0.742      2.744
REMARK  0 active torsions:
REMARK  status: ('A' for Active; 'I' for Inactive)
ROOT
HETATM    1  C1  UNL     1     -15.071   6.428   5.021  1.00  0.00     0.048 C 
HETATM    2  C2  UNL     1     -15.889   5.249   5.460  1.00  0.00    -0.062 A 
HETATM    3  C3  UNL     1     -16.651   5.312   6.634  1.00  0.00     0.007 A 
HETATM    4  C4  UNL     1     -17.387   4.205   7.059  1.00  0.00     0.001 A 
HETATM    5  C5  UNL     1     -17.359   3.022   6.321  1.00  0.00     0.000 A 
HETATM    6  C6  UNL     1     -16.593   2.946   5.159  1.00  0.00     0.001 A 
HETATM    7  C7  UNL     1     -15.857   4.052   4.733  1.00  0.00     0.007 A 
ENDROOT
TORSDOF 0
ENDMDL
MODEL 4
REMARK VINA RESULT:      -4.1      0.857      3.209
REMARK  0 active torsions:
REMARK  status: ('A' for Active; 'I' for Inactive)
ROOT
HETATM    1  C1  UNL     1     -14.939   6.317   4.197  1.00  0.00     0.048 C 
HETATM    2  C2  UNL     1     -15.692   5.305   5.010  1.00  0.00    -0.062 A 
HETATM    3  C3  UNL     1     -15.818   3.985   4.559  1.00  0.00     0.007 A 
HETATM    4  C4  UNL     1     -16.545   3.052   5.299  1.00  0.00     0.001 A 
HETATM    5  C5  UNL     1     -17.163   3.433   6.489  1.00  0.00     0.000 A 
HETATM    6  C6  UNL     1     -17.056   4.748   6.938  1.00  0.00     0.001 A 
HETATM    7  C7  UNL     1     -16.328   5.681   6.199  1.00  0.00     0.007 A 
ENDROOT
TORSDOF 0
ENDMDL
MODEL 5
REMARK VINA RESULT:      -3.9      1.227      3.697
REMARK  0 active torsions:
REMARK  status: ('A' for Active; 'I' for Inactive)
ROOT
HETATM    1  C1  UNL     1     -15.960   4.957   5.009  1.00  0.00     0.048 C 
HETATM    2  C2  UNL     1     -16.305   3.497   5.007  1.00  0.00    -0.062 A 
HETATM    3  C3  UNL     1     -15.405   2.556   4.489  1.00  0.00     0.007 A 
HETATM    4  C4  UNL     1     -15.739   1.202   4.458  1.00  0.00     0.001 A 
HETATM    5  C5  UNL     1     -16.980   0.777   4.933  1.00  0.00     0.000 A 
HETATM    6  C6  UNL     1     -17.886   1.707   5.437  1.00  0.00     0.001 A 
HETATM    7  C7  UNL     1     -17.553   3.062   5.469  1.00  0.00     0.007 A 
ENDROOT
TORSDOF 0
ENDMDL
MODEL 6
REMARK VINA RESULT:      -3.9      1.357      2.186
REMARK  0 active torsions:
REMARK  status: ('A' for Active; 'I' for Inactive)
ROOT
HETATM    1  C1  UNL     1     -18.237   2.233   8.604  1.00  0.00     0.048 C 
HETATM    2  C2  UNL     1     -17.564   2.743   7.364  1.00  0.00    -0.062 A 
HETATM    3  C3  UNL     1     -17.191   4.090   7.263  1.00  0.00     0.007 A 
HETATM    4  C4  UNL     1     -16.594   4.572   6.097  1.00  0.00     0.001 A 
HETATM    5  C5  UNL     1     -16.375   3.715   5.019  1.00  0.00     0.000 A 
HETATM    6  C6  UNL     1     -16.756   2.378   5.106  1.00  0.00     0.001 A 
HETATM    7  C7  UNL     1     -17.353   1.895   6.271  1.00  0.00     0.007 A 
ENDROOT
TORSDOF 0
ENDMDL
MODEL 7
REMARK VINA RESULT:      -3.8     12.581     13.798
REMARK  0 active torsions:
REMARK  status: ('A' for Active; 'I' for Inactive)
ROOT
HETATM    1  C1  UNL     1     -16.303  10.329  -3.791  1.00  0.00     0.048 C 
HETATM    2  C2  UNL     1     -16.728  11.444  -4.701  1.00  0.00    -0.062 A 
HETATM    3  C3  UNL     1     -16.067  12.679  -4.666  1.00  0.00     0.007 A 
HETATM    4  C4  UNL     1     -16.483  13.726  -5.490  1.00  0.00     0.001 A 
HETATM    5  C5  UNL     1     -17.569  13.552  -6.346  1.00  0.00     0.000 A 
HETATM    6  C6  UNL     1     -18.242  12.332  -6.377  1.00  0.00     0.001 A 
HETATM    7  C7  UNL     1     -17.827  11.284  -5.554  1.00  0.00     0.007 A 
ENDROOT
TORSDOF 0
ENDMDL
MODEL 8
REMARK VINA RESULT:      -3.8     12.551     13.781
REMARK  0 active torsions:
REMARK  status: ('A' for Active; 'I' for Inactive)
ROOT
HETATM    1  C1  UNL     1     -16.204  10.319  -3.794  1.00  0.00     0.048 C 
HETATM    2  C2  UNL     1     -16.686  11.449  -4.655  1.00  0.00    -0.062 A 
HETATM    3  C3  UNL     1     -17.762  11.263  -5.533  1.00  0.00     0.007 A 
HETATM    4  C4  UNL     1     -18.190  12.305  -6.357  1.00  0.00     0.001 A 
HETATM    5  C5  UNL     1     -17.540  13.538  -6.318  1.00  0.00     0.000 A 
HETATM    6  C6  UNL     1     -16.460  13.728  -5.458  1.00  0.00     0.001 A 
HETATM    7  C7  UNL     1     -16.031  12.687  -4.634  1.00  0.00     0.007 A 
ENDROOT
TORSDOF 0
ENDMDL
MODEL 9
REMARK VINA RESULT:      -3.8      2.986      4.367
REMARK  0 active torsions:
REMARK  status: ('A' for Active; 'I' for Inactive)
ROOT
HETATM    1  C1  UNL     1     -15.983   5.265   4.767  1.00  0.00     0.048 C 
HETATM    2  C2  UNL     1     -15.251   6.531   4.433  1.00  0.00    -0.062 A 
HETATM    3  C3  UNL     1     -15.596   7.271   3.295  1.00  0.00     0.007 A 
HETATM    4  C4  UNL     1     -14.894   8.432   2.967  1.00  0.00     0.001 A 
HETATM    5  C5  UNL     1     -13.834   8.857   3.767  1.00  0.00     0.000 A 
HETATM    6  C6  UNL     1     -13.474   8.119   4.893  1.00  0.00     0.001 A 
HETATM    7  C7  UNL     1     -14.176   6.958   5.222  1.00  0.00     0.007 A 
ENDROOT
TORSDOF 0
ENDMDL
