MODEL 1
REMARK VINA RESULT:      -5.5      0.000      0.000
REMARK  4 active torsions:
REMARK  status: ('A' for Active; 'I' for Inactive)
REMARK    1  A    between atoms: C2_2  and  O2_4 
REMARK    2  A    between atoms: O2_4  and  C3_5 
REMARK    3  A    between atoms: C8_10  and  C9_11 
REMARK    4  A    between atoms: C9_11  and  O4_13 
ROOT
HETATM    1  C3  UNL     1     -15.804  12.600  -4.664  1.00  0.00     0.096 A 
HETATM    2  C4  UNL     1     -16.275  13.650  -5.458  1.00  0.00     0.038 A 
HETATM    3  C5  UNL     1     -17.468  13.500  -6.163  1.00  0.00     0.003 A 
HETATM    4  C6  UNL     1     -18.178  12.302  -6.082  1.00  0.00     0.001 A 
HETATM    5  C7  UNL     1     -17.693  11.248  -5.302  1.00  0.00     0.021 A 
HETATM    6  C8  UNL     1     -16.494  11.381  -4.586  1.00  0.00     0.071 A 
ENDROOT
BRANCH   1   7
HETATM    7  O2  UNL     1     -14.586  12.806  -4.007  1.00  0.00    -0.278 OA
BRANCH   7   8
HETATM    8  C2  UNL     1     -14.753  13.281  -2.711  1.00  0.00     0.260 C 
HETATM    9  C1  UNL     1     -14.796  14.779  -2.745  1.00  0.00     0.126 C 
HETATM   10  O1  UNL     1     -14.870  12.608  -1.694  1.00  0.00    -0.265 OA
ENDBRANCH   7   8
ENDBRANCH   1   7
BRANCH   6  11
HETATM   11  C9  UNL     1     -15.958  10.254  -3.779  1.00  0.00     0.179 C 
HETATM   12  O3  UNL     1     -15.116   9.443  -4.116  1.00  0.00    -0.646 OA
BRANCH  11  13
HETATM   13  O4  UNL     1     -16.516  10.186  -2.554  1.00  0.00    -0.773 OA
HETATM   14  H8  UNL     1     -15.946   9.549  -2.074  1.00  0.00     0.167 HD
ENDBRANCH  11  13
ENDBRANCH   6  11
TORSDOF 4
ENDMDL
MODEL 2
REMARK VINA RESULT:      -5.3     11.457     13.162
REMARK  4 active torsions:
REMARK  status: ('A' for Active; 'I' for Inactive)
REMARK    1  A    between atoms: C2_2  and  O2_4 
REMARK    2  A    between atoms: O2_4  and  C3_5 
REMARK    3  A    between atoms: C8_10  and  C9_11 
REMARK    4  A    between atoms: C9_11  and  O4_13 
ROOT
HETATM    1  C3  UNL     1     -15.962   3.523   4.951  1.00  0.00     0.096 A 
HETATM    2  C4  UNL     1     -16.359   4.828   5.261  1.00  0.00     0.038 A 
HETATM    3  C5  UNL     1     -15.651   5.907   4.737  1.00  0.00     0.003 A 
HETATM    4  C6  UNL     1     -14.544   5.682   3.918  1.00  0.00     0.001 A 
HETATM    5  C7  UNL     1     -14.139   4.376   3.626  1.00  0.00     0.021 A 
HETATM    6  C8  UNL     1     -14.840   3.277   4.146  1.00  0.00     0.071 A 
ENDROOT
BRANCH   1   7
HETATM    7  O2  UNL     1     -16.698   2.487   5.534  1.00  0.00    -0.278 OA
BRANCH   7   8
HETATM    8  C2  UNL     1     -16.449   2.354   6.895  1.00  0.00     0.260 C 
HETATM    9  C1  UNL     1     -17.707   2.656   7.651  1.00  0.00     0.126 C 
HETATM   10  O1  UNL     1     -15.390   2.024   7.416  1.00  0.00    -0.265 OA
ENDBRANCH   7   8
ENDBRANCH   1   7
BRANCH   6  11
HETATM   11  C9  UNL     1     -14.397   1.887   3.864  1.00  0.00     0.179 C 
HETATM   12  O3  UNL     1     -14.498   1.283   2.812  1.00  0.00    -0.646 OA
BRANCH  11  13
HETATM   13  O4  UNL     1     -13.836   1.296   4.936  1.00  0.00    -0.773 OA
HETATM   14  H8  UNL     1     -14.555   1.293   5.603  1.00  0.00     0.167 HD
ENDBRANCH  11  13
ENDBRANCH   6  11
TORSDOF 4
ENDMDL
MODEL 3
REMARK VINA RESULT:      -5.2     12.585     14.377
REMARK  4 active torsions:
REMARK  status: ('A' for Active; 'I' for Inactive)
REMARK    1  A    between atoms: C2_2  and  O2_4 
REMARK    2  A    between atoms: O2_4  and  C3_5 
REMARK    3  A    between atoms: C8_10  and  C9_11 
REMARK    4  A    between atoms: C9_11  and  O4_13 
ROOT
HETATM    1  C3  UNL     1     -16.055   2.810   5.816  1.00  0.00     0.096 A 
HETATM    2  C4  UNL     1     -15.611   3.577   4.733  1.00  0.00     0.038 A 
HETATM    3  C5  UNL     1     -15.801   4.957   4.743  1.00  0.00     0.003 A 
HETATM    4  C6  UNL     1     -16.442   5.565   5.823  1.00  0.00     0.001 A 
HETATM    5  C7  UNL     1     -16.901   4.792   6.894  1.00  0.00     0.021 A 
HETATM    6  C8  UNL     1     -16.719   3.400   6.901  1.00  0.00     0.071 A 
ENDROOT
BRANCH   1   7
HETATM    7  O2  UNL     1     -15.860   1.428   5.729  1.00  0.00    -0.278 OA
BRANCH   7   8
HETATM    8  C2  UNL     1     -16.717   0.824   4.816  1.00  0.00     0.260 C 
HETATM    9  C1  UNL     1     -15.910  -0.025   3.881  1.00  0.00     0.126 C 
HETATM   10  O1  UNL     1     -17.936   0.931   4.775  1.00  0.00    -0.265 OA
ENDBRANCH   7   8
ENDBRANCH   1   7
BRANCH   6  11
HETATM   11  C9  UNL     1     -17.230   2.570   8.023  1.00  0.00     0.179 C 
HETATM   12  O3  UNL     1     -18.370   2.532   8.448  1.00  0.00    -0.646 OA
BRANCH  11  13
HETATM   13  O4  UNL     1     -16.270   1.808   8.580  1.00  0.00    -0.773 OA
HETATM   14  H8  UNL     1     -16.145   1.081   7.934  1.00  0.00     0.167 HD
ENDBRANCH  11  13
ENDBRANCH   6  11
TORSDOF 4
ENDMDL
MODEL 4
REMARK VINA RESULT:      -5.1      8.649     10.284
REMARK  4 active torsions:
REMARK  status: ('A' for Active; 'I' for Inactive)
REMARK    1  A    between atoms: C2_2  and  O2_4 
REMARK    2  A    between atoms: O2_4  and  C3_5 
REMARK    3  A    between atoms: C8_10  and  C9_11 
REMARK    4  A    between atoms: C9_11  and  O4_13 
ROOT
HETATM    1  C3  UNL     1     -14.035   6.608   4.285  1.00  0.00     0.096 A 
HETATM    2  C4  UNL     1     -15.154   6.575   5.124  1.00  0.00     0.038 A 
HETATM    3  C5  UNL     1     -15.891   5.399   5.245  1.00  0.00     0.003 A 
HETATM    4  C6  UNL     1     -15.518   4.266   4.521  1.00  0.00     0.001 A 
HETATM    5  C7  UNL     1     -14.410   4.309   3.669  1.00  0.00     0.021 A 
HETATM    6  C8  UNL     1     -13.657   5.486   3.534  1.00  0.00     0.071 A 
ENDROOT
BRANCH   1   7
HETATM    7  O2  UNL     1     -13.358   7.828   4.187  1.00  0.00    -0.278 OA
BRANCH   7   8
HETATM    8  C2  UNL     1     -14.044   8.759   3.414  1.00  0.00     0.260 C 
HETATM    9  C1  UNL     1     -13.802  10.128   3.975  1.00  0.00     0.126 C 
HETATM   10  O1  UNL     1     -14.722   8.528   2.421  1.00  0.00    -0.265 OA
ENDBRANCH   7   8
ENDBRANCH   1   7
BRANCH   6  11
HETATM   11  C9  UNL     1     -12.496   5.546   2.608  1.00  0.00     0.179 C 
HETATM   12  O3  UNL     1     -12.523   5.496   1.392  1.00  0.00    -0.646 OA
BRANCH  11  13
HETATM   13  O4  UNL     1     -11.322   5.666   3.258  1.00  0.00    -0.773 OA
HETATM   14  H8  UNL     1     -11.584   5.725   4.202  1.00  0.00     0.167 HD
ENDBRANCH  11  13
ENDBRANCH   6  11
TORSDOF 4
ENDMDL
MODEL 5
REMARK VINA RESULT:      -4.9     12.750     14.507
REMARK  4 active torsions:
REMARK  status: ('A' for Active; 'I' for Inactive)
REMARK    1  A    between atoms: C2_2  and  O2_4 
REMARK    2  A    between atoms: O2_4  and  C3_5 
REMARK    3  A    between atoms: C8_10  and  C9_11 
REMARK    4  A    between atoms: C9_11  and  O4_13 
ROOT
HETATM    1  C3  UNL     1     -16.440   1.228   4.878  1.00  0.00     0.096 A 
HETATM    2  C4  UNL     1     -17.397   1.718   5.774  1.00  0.00     0.038 A 
HETATM    3  C5  UNL     1     -17.440   3.082   6.058  1.00  0.00     0.003 A 
HETATM    4  C6  UNL     1     -16.525   3.947   5.459  1.00  0.00     0.001 A 
HETATM    5  C7  UNL     1     -15.558   3.450   4.579  1.00  0.00     0.021 A 
HETATM    6  C8  UNL     1     -15.500   2.080   4.282  1.00  0.00     0.071 A 
ENDROOT
BRANCH   1   7
HETATM    7  O2  UNL     1     -16.433  -0.154   4.661  1.00  0.00    -0.278 OA
BRANCH   7   8
HETATM    8  C2  UNL     1     -15.506  -0.815   5.458  1.00  0.00     0.260 C 
HETATM    9  C1  UNL     1     -14.875  -1.915   4.659  1.00  0.00     0.126 C 
HETATM   10  O1  UNL     1     -15.215  -0.548   6.618  1.00  0.00    -0.265 OA
ENDBRANCH   7   8
ENDBRANCH   1   7
BRANCH   6  11
HETATM   11  C9  UNL     1     -14.457   1.541   3.370  1.00  0.00     0.179 C 
HETATM   12  O3  UNL     1     -13.252   1.690   3.462  1.00  0.00    -0.646 OA
BRANCH  11  13
HETATM   13  O4  UNL     1     -14.978   0.825   2.356  1.00  0.00    -0.773 OA
HETATM   14  H8  UNL     1     -14.193   0.425   1.925  1.00  0.00     0.167 HD
ENDBRANCH  11  13
ENDBRANCH   6  11
TORSDOF 4
ENDMDL
MODEL 6
REMARK VINA RESULT:      -4.9      1.565      2.282
REMARK  4 active torsions:
REMARK  status: ('A' for Active; 'I' for Inactive)
REMARK    1  A    between atoms: C2_2  and  O2_4 
REMARK    2  A    between atoms: O2_4  and  C3_5 
REMARK    3  A    between atoms: C8_10  and  C9_11 
REMARK    4  A    between atoms: C9_11  and  O4_13 
ROOT
HETATM    1  C3  UNL     1     -16.001  13.192  -4.950  1.00  0.00     0.096 A 
HETATM    2  C4  UNL     1     -16.969  13.264  -5.958  1.00  0.00     0.038 A 
HETATM    3  C5  UNL     1     -17.847  12.199  -6.147  1.00  0.00     0.003 A 
HETATM    4  C6  UNL     1     -17.751  11.065  -5.341  1.00  0.00     0.001 A 
HETATM    5  C7  UNL     1     -16.770  10.989  -4.348  1.00  0.00     0.021 A 
HETATM    6  C8  UNL     1     -15.877  12.052  -4.143  1.00  0.00     0.071 A 
ENDROOT
BRANCH   1   7
HETATM    7  O2  UNL     1     -15.133  14.282  -4.832  1.00  0.00    -0.278 OA
BRANCH   7   8
HETATM    8  C2  UNL     1     -15.786  15.444  -4.437  1.00  0.00     0.260 C 
HETATM    9  C1  UNL     1     -15.560  15.653  -2.970  1.00  0.00     0.126 C 
HETATM   10  O1  UNL     1     -16.428  16.203  -5.154  1.00  0.00    -0.265 OA
ENDBRANCH   7   8
ENDBRANCH   1   7
BRANCH   6  11
HETATM   11  C9  UNL     1     -14.814  11.965  -3.108  1.00  0.00     0.179 C 
HETATM   12  O3  UNL     1     -13.640  11.692  -3.281  1.00  0.00    -0.646 OA
BRANCH  11  13
HETATM   13  O4  UNL     1     -15.276  12.227  -1.870  1.00  0.00    -0.773 OA
HETATM   14  H8  UNL     1     -16.070  11.657  -1.792  1.00  0.00     0.167 HD
ENDBRANCH  11  13
ENDBRANCH   6  11
TORSDOF 4
ENDMDL
MODEL 7
REMARK VINA RESULT:      -4.8      2.383      3.912
REMARK  4 active torsions:
REMARK  status: ('A' for Active; 'I' for Inactive)
REMARK    1  A    between atoms: C2_2  and  O2_4 
REMARK    2  A    between atoms: O2_4  and  C3_5 
REMARK    3  A    between atoms: C8_10  and  C9_11 
REMARK    4  A    between atoms: C9_11  and  O4_13 
ROOT
HETATM    1  C3  UNL     1     -15.994  13.601  -4.974  1.00  0.00     0.096 A 
HETATM    2  C4  UNL     1     -16.268  12.284  -4.587  1.00  0.00     0.038 A 
HETATM    3  C5  UNL     1     -17.293  11.580  -5.215  1.00  0.00     0.003 A 
HETATM    4  C6  UNL     1     -18.049  12.194  -6.215  1.00  0.00     0.001 A 
HETATM    5  C7  UNL     1     -17.785  13.516  -6.584  1.00  0.00     0.021 A 
HETATM    6  C8  UNL     1     -16.756  14.240  -5.963  1.00  0.00     0.071 A 
ENDROOT
BRANCH   1   7
HETATM    7  O2  UNL     1     -14.972  14.259  -4.283  1.00  0.00    -0.278 OA
BRANCH   7   8
HETATM    8  C2  UNL     1     -13.706  13.846  -4.683  1.00  0.00     0.260 C 
HETATM    9  C1  UNL     1     -12.876  13.577  -3.464  1.00  0.00     0.126 C 
HETATM   10  O1  UNL     1     -13.314  13.696  -5.834  1.00  0.00    -0.265 OA
ENDBRANCH   7   8
ENDBRANCH   1   7
BRANCH   6  11
HETATM   11  C9  UNL     1     -16.489  15.655  -6.331  1.00  0.00     0.179 C 
HETATM   12  O3  UNL     1     -16.275  16.097  -7.445  1.00  0.00    -0.646 OA
BRANCH  11  13
HETATM   13  O4  UNL     1     -16.499  16.477  -5.264  1.00  0.00    -0.773 OA
HETATM   14  H8  UNL     1     -15.639  16.300  -4.826  1.00  0.00     0.167 HD
ENDBRANCH  11  13
ENDBRANCH   6  11
TORSDOF 4
ENDMDL
MODEL 8
REMARK VINA RESULT:      -4.8     12.262     13.823
REMARK  4 active torsions:
REMARK  status: ('A' for Active; 'I' for Inactive)
REMARK    1  A    between atoms: C2_2  and  O2_4 
REMARK    2  A    between atoms: O2_4  and  C3_5 
REMARK    3  A    between atoms: C8_10  and  C9_11 
REMARK    4  A    between atoms: C9_11  and  O4_13 
ROOT
HETATM    1  C3  UNL     1     -15.354   2.259   4.301  1.00  0.00     0.096 A 
HETATM    2  C4  UNL     1     -14.568   3.328   3.859  1.00  0.00     0.038 A 
HETATM    3  C5  UNL     1     -14.941   4.634   4.174  1.00  0.00     0.003 A 
HETATM    4  C6  UNL     1     -16.098   4.868   4.916  1.00  0.00     0.001 A 
HETATM    5  C7  UNL     1     -16.891   3.797   5.340  1.00  0.00     0.021 A 
HETATM    6  C8  UNL     1     -16.532   2.476   5.032  1.00  0.00     0.071 A 
ENDROOT
BRANCH   1   7
HETATM    7  O2  UNL     1     -14.940   0.977   3.926  1.00  0.00    -0.278 OA
BRANCH   7   8
HETATM    8  C2  UNL     1     -13.807   0.559   4.615  1.00  0.00     0.260 C 
HETATM    9  C1  UNL     1     -12.745   0.189   3.623  1.00  0.00     0.126 C 
HETATM   10  O1  UNL     1     -13.666   0.512   5.830  1.00  0.00    -0.265 OA
ENDBRANCH   7   8
ENDBRANCH   1   7
BRANCH   6  11
HETATM   11  C9  UNL     1     -17.385   1.335   5.454  1.00  0.00     0.179 C 
HETATM   12  O3  UNL     1     -18.525   1.099   5.098  1.00  0.00    -0.646 OA
BRANCH  11  13
HETATM   13  O4  UNL     1     -16.763   0.521   6.329  1.00  0.00    -0.773 OA
HETATM   14  H8  UNL     1     -17.393  -0.221   6.445  1.00  0.00     0.167 HD
ENDBRANCH  11  13
ENDBRANCH   6  11
TORSDOF 4
ENDMDL
MODEL 9
REMARK VINA RESULT:      -4.7      1.795      3.731
REMARK  4 active torsions:
REMARK  status: ('A' for Active; 'I' for Inactive)
REMARK    1  A    between atoms: C2_2  and  O2_4 
REMARK    2  A    between atoms: O2_4  and  C3_5 
REMARK    3  A    between atoms: C8_10  and  C9_11 
REMARK    4  A    between atoms: C9_11  and  O4_13 
ROOT
HETATM    1  C3  UNL     1     -14.782  13.565  -3.722  1.00  0.00     0.096 A 
HETATM    2  C4  UNL     1     -14.997  14.816  -4.310  1.00  0.00     0.038 A 
HETATM    3  C5  UNL     1     -15.183  15.935  -3.501  1.00  0.00     0.003 A 
HETATM    4  C6  UNL     1     -15.165  15.801  -2.113  1.00  0.00     0.001 A 
HETATM    5  C7  UNL     1     -14.968  14.546  -1.529  1.00  0.00     0.021 A 
HETATM    6  C8  UNL     1     -14.780  13.408  -2.329  1.00  0.00     0.071 A 
ENDROOT
BRANCH   1   7
HETATM    7  O2  UNL     1     -14.632  12.479  -4.591  1.00  0.00    -0.278 OA
BRANCH   7   8
HETATM    8  C2  UNL     1     -15.821  12.134  -5.223  1.00  0.00     0.260 C 
HETATM    9  C1  UNL     1     -15.612  12.175  -6.707  1.00  0.00     0.126 C 
HETATM   10  O1  UNL     1     -16.874  11.821  -4.681  1.00  0.00    -0.265 OA
ENDBRANCH   7   8
ENDBRANCH   1   7
BRANCH   6  11
HETATM   11  C9  UNL     1     -14.600  12.066  -1.715  1.00  0.00     0.179 C 
HETATM   12  O3  UNL     1     -13.621  11.657  -1.118  1.00  0.00    -0.646 OA
BRANCH  11  13
HETATM   13  O4  UNL     1     -15.676  11.273  -1.883  1.00  0.00    -0.773 OA
HETATM   14  H8  UNL     1     -16.435  11.882  -1.763  1.00  0.00     0.167 HD
ENDBRANCH  11  13
ENDBRANCH   6  11
TORSDOF 4
ENDMDL
