MODEL 1
REMARK VINA RESULT:      -4.3      0.000      0.000
REMARK  0 active torsions:
REMARK  status: ('A' for Active; 'I' for Inactive)
ROOT
HETATM    1  C1  UNL     1     -16.899   1.058   5.281  1.00  0.00     0.064 C 
HETATM    2  C2  UNL     1     -16.619   2.501   5.546  1.00  0.00     0.015 C 
HETATM    3  C3  UNL     1     -17.017   3.210   6.617  1.00  0.00     0.026 C 
HETATM    4  C4  UNL     1     -16.487   4.580   6.400  1.00  0.00     0.265 C 
HETATM    5  O1  UNL     1     -16.760   5.544   7.096  1.00  0.00    -0.266 OA
HETATM    6  N1  UNL     1     -15.699   4.539   5.247  1.00  0.00    -0.277 N 
HETATM    7  N2  UNL     1     -15.883   3.270   4.638  1.00  0.00    -0.200 NA
HETATM    8  C5  UNL     1     -14.708   2.731   3.954  1.00  0.00     0.142 C 
HETATM    9  C6  UNL     1     -15.624   5.707   4.402  1.00  0.00     0.175 C 
HETATM   10  C7  UNL     1     -17.807   2.870   7.819  1.00  0.00     0.056 C 
ENDROOT
TORSDOF 0
ENDMDL
MODEL 2
REMARK VINA RESULT:      -4.2      2.302      3.539
REMARK  0 active torsions:
REMARK  status: ('A' for Active; 'I' for Inactive)
ROOT
HETATM    1  C1  UNL     1     -17.757   2.731   6.081  1.00  0.00     0.064 C 
HETATM    2  C2  UNL     1     -16.553   2.536   5.219  1.00  0.00     0.015 C 
HETATM    3  C3  UNL     1     -15.750   3.499   4.735  1.00  0.00     0.026 C 
HETATM    4  C4  UNL     1     -14.714   2.786   3.946  1.00  0.00     0.265 C 
HETATM    5  O1  UNL     1     -13.885   3.336   3.239  1.00  0.00    -0.266 OA
HETATM    6  N1  UNL     1     -14.925   1.418   4.129  1.00  0.00    -0.277 N 
HETATM    7  N2  UNL     1     -16.154   1.255   4.823  1.00  0.00    -0.200 NA
HETATM    8  C5  UNL     1     -16.205   0.118   5.740  1.00  0.00     0.142 C 
HETATM    9  C6  UNL     1     -14.611   0.505   3.055  1.00  0.00     0.175 C 
HETATM   10  C7  UNL     1     -15.752   4.972   4.853  1.00  0.00     0.056 C 
ENDROOT
TORSDOF 0
ENDMDL
MODEL 3
REMARK VINA RESULT:      -4.2      6.695      7.997
REMARK  0 active torsions:
REMARK  status: ('A' for Active; 'I' for Inactive)
ROOT
HETATM    1  C1  UNL     1     -14.807   8.168   2.920  1.00  0.00     0.064 C 
HETATM    2  C2  UNL     1     -13.722   9.168   2.696  1.00  0.00     0.015 C 
HETATM    3  C3  UNL     1     -13.566  10.338   3.338  1.00  0.00     0.026 C 
HETATM    4  C4  UNL     1     -12.348  10.951   2.749  1.00  0.00     0.265 C 
HETATM    5  O1  UNL     1     -11.965  12.085   2.983  1.00  0.00    -0.266 OA
HETATM    6  N1  UNL     1     -11.802  10.016   1.867  1.00  0.00    -0.277 N 
HETATM    7  N2  UNL     1     -12.729   8.948   1.734  1.00  0.00    -0.200 NA
HETATM    8  C5  UNL     1     -12.134   7.628   1.535  1.00  0.00     0.142 C 
HETATM    9  C6  UNL     1     -11.107  10.478   0.689  1.00  0.00     0.175 C 
HETATM   10  C7  UNL     1     -14.334  11.019   4.402  1.00  0.00     0.056 C 
ENDROOT
TORSDOF 0
ENDMDL
MODEL 4
REMARK VINA RESULT:      -4.1     13.628     15.024
REMARK  0 active torsions:
REMARK  status: ('A' for Active; 'I' for Inactive)
ROOT
HETATM    1  C1  UNL     1     -16.712  10.989  -4.684  1.00  0.00     0.064 C 
HETATM    2  C2  UNL     1     -16.582  12.413  -5.115  1.00  0.00     0.015 C 
HETATM    3  C3  UNL     1     -17.446  13.100  -5.882  1.00  0.00     0.026 C 
HETATM    4  C4  UNL     1     -16.861  14.458  -6.015  1.00  0.00     0.265 C 
HETATM    5  O1  UNL     1     -17.292  15.326  -6.755  1.00  0.00    -0.266 OA
HETATM    6  N1  UNL     1     -15.729  14.500  -5.197  1.00  0.00    -0.277 N 
HETATM    7  N2  UNL     1     -15.478  13.182  -4.731  1.00  0.00    -0.200 NA
HETATM    8  C5  UNL     1     -14.914  13.094  -3.385  1.00  0.00     0.142 C 
HETATM    9  C6  UNL     1     -14.606  15.320  -5.587  1.00  0.00     0.175 C 
HETATM   10  C7  UNL     1     -18.725  12.744  -6.534  1.00  0.00     0.056 C 
ENDROOT
TORSDOF 0
ENDMDL
MODEL 5
REMARK VINA RESULT:      -4.1     12.601     14.592
REMARK  0 active torsions:
REMARK  status: ('A' for Active; 'I' for Inactive)
ROOT
HETATM    1  C1  UNL     1     -16.690  15.128  -6.312  1.00  0.00     0.064 C 
HETATM    2  C2  UNL     1     -16.649  13.773  -5.686  1.00  0.00     0.015 C 
HETATM    3  C3  UNL     1     -17.538  12.782  -5.864  1.00  0.00     0.026 C 
HETATM    4  C4  UNL     1     -17.048  11.658  -5.027  1.00  0.00     0.265 C 
HETATM    5  O1  UNL     1     -17.668  10.628  -4.822  1.00  0.00    -0.266 OA
HETATM    6  N1  UNL     1     -15.813  12.045  -4.500  1.00  0.00    -0.277 N 
HETATM    7  N2  UNL     1     -15.620  13.418  -4.807  1.00  0.00    -0.200 NA
HETATM    8  C5  UNL     1     -14.233  13.812  -5.050  1.00  0.00     0.142 C 
HETATM    9  C6  UNL     1     -15.421  11.566  -3.196  1.00  0.00     0.175 C 
HETATM   10  C7  UNL     1     -18.776  12.664  -6.664  1.00  0.00     0.056 C 
ENDROOT
TORSDOF 0
ENDMDL
MODEL 6
REMARK VINA RESULT:      -4.1      2.161      4.040
REMARK  0 active torsions:
REMARK  status: ('A' for Active; 'I' for Inactive)
ROOT
HETATM    1  C1  UNL     1     -16.334   5.570   5.801  1.00  0.00     0.064 C 
HETATM    2  C2  UNL     1     -15.976   4.233   5.240  1.00  0.00     0.015 C 
HETATM    3  C3  UNL     1     -15.023   3.976   4.328  1.00  0.00     0.026 C 
HETATM    4  C4  UNL     1     -15.071   2.508   4.112  1.00  0.00     0.265 C 
HETATM    5  O1  UNL     1     -14.445   1.916   3.249  1.00  0.00    -0.266 OA
HETATM    6  N1  UNL     1     -15.993   1.987   5.024  1.00  0.00    -0.277 N 
HETATM    7  N2  UNL     1     -16.656   3.079   5.645  1.00  0.00    -0.200 NA
HETATM    8  C5  UNL     1     -17.037   2.863   7.040  1.00  0.00     0.142 C 
HETATM    9  C6  UNL     1     -16.767   0.825   4.659  1.00  0.00     0.175 C 
HETATM   10  C7  UNL     1     -14.063   4.832   3.599  1.00  0.00     0.056 C 
ENDROOT
TORSDOF 0
ENDMDL
MODEL 7
REMARK VINA RESULT:      -4.0      2.611      3.583
REMARK  0 active torsions:
REMARK  status: ('A' for Active; 'I' for Inactive)
ROOT
HETATM    1  C1  UNL     1     -16.637   4.245   5.656  1.00  0.00     0.064 C 
HETATM    2  C2  UNL     1     -16.133   3.008   4.990  1.00  0.00     0.015 C 
HETATM    3  C3  UNL     1     -16.785   1.838   4.873  1.00  0.00     0.026 C 
HETATM    4  C4  UNL     1     -15.857   0.942   4.138  1.00  0.00     0.265 C 
HETATM    5  O1  UNL     1     -16.044  -0.250   3.962  1.00  0.00    -0.266 OA
HETATM    6  N1  UNL     1     -14.751   1.709   3.767  1.00  0.00    -0.277 N 
HETATM    7  N2  UNL     1     -14.860   2.972   4.409  1.00  0.00    -0.200 NA
HETATM    8  C5  UNL     1     -14.332   4.104   3.651  1.00  0.00     0.142 C 
HETATM    9  C6  UNL     1     -13.452   1.084   3.689  1.00  0.00     0.175 C 
HETATM   10  C7  UNL     1     -18.116   1.373   5.318  1.00  0.00     0.056 C 
ENDROOT
TORSDOF 0
ENDMDL
MODEL 8
REMARK VINA RESULT:      -4.0      1.903      2.985
REMARK  0 active torsions:
REMARK  status: ('A' for Active; 'I' for Inactive)
ROOT
HETATM    1  C1  UNL     1     -17.712   2.380   8.418  1.00  0.00     0.064 C 
HETATM    2  C2  UNL     1     -16.961   2.525   7.135  1.00  0.00     0.015 C 
HETATM    3  C3  UNL     1     -16.657   3.676   6.512  1.00  0.00     0.026 C 
HETATM    4  C4  UNL     1     -15.913   3.277   5.290  1.00  0.00     0.265 C 
HETATM    5  O1  UNL     1     -15.589   4.042   4.398  1.00  0.00    -0.266 OA
HETATM    6  N1  UNL     1     -15.729   1.893   5.353  1.00  0.00    -0.277 N 
HETATM    7  N2  UNL     1     -16.496   1.402   6.443  1.00  0.00    -0.200 NA
HETATM    8  C5  UNL     1     -15.918   0.255   7.143  1.00  0.00     0.142 C 
HETATM    9  C6  UNL     1     -15.699   1.128   4.129  1.00  0.00     0.175 C 
HETATM   10  C7  UNL     1     -16.926   5.097   6.820  1.00  0.00     0.056 C 
ENDROOT
TORSDOF 0
ENDMDL
MODEL 9
REMARK VINA RESULT:      -4.0     13.869     15.154
REMARK  0 active torsions:
REMARK  status: ('A' for Active; 'I' for Inactive)
ROOT
HETATM    1  C1  UNL     1     -15.071  12.765  -3.555  1.00  0.00     0.064 C 
HETATM    2  C2  UNL     1     -16.004  13.117  -4.667  1.00  0.00     0.015 C 
HETATM    3  C3  UNL     1     -16.941  12.319  -5.208  1.00  0.00     0.026 C 
HETATM    4  C4  UNL     1     -17.588  13.134  -6.267  1.00  0.00     0.265 C 
HETATM    5  O1  UNL     1     -18.397  12.704  -7.072  1.00  0.00    -0.266 OA
HETATM    6  N1  UNL     1     -17.048  14.420  -6.184  1.00  0.00    -0.277 N 
HETATM    7  N2  UNL     1     -15.964  14.379  -5.268  1.00  0.00    -0.200 NA
HETATM    8  C5  UNL     1     -15.767  15.596  -4.482  1.00  0.00     0.142 C 
HETATM    9  C6  UNL     1     -16.907  15.205  -7.388  1.00  0.00     0.175 C 
HETATM   10  C7  UNL     1     -17.362  10.927  -4.942  1.00  0.00     0.056 C 
ENDROOT
TORSDOF 0
ENDMDL
