MODEL 1
REMARK VINA RESULT:      -2.9      0.000      0.000
REMARK  1 active torsions:
REMARK  status: ('A' for Active; 'I' for Inactive)
REMARK    1  A    between atoms: C2_2  and  O1_5 
ROOT
HETATM    1  C1  UNL     1     -13.326  10.914   3.561  1.00  0.00     0.045 C 
HETATM    2  C2  UNL     1     -11.992  10.953   2.817  1.00  0.00     0.047 C 
HETATM    3  C3  UNL     1     -12.174  11.488   1.398  1.00  0.00     0.045 C 
HETATM    4  C4  UNL     1     -11.351   9.566   2.791  1.00  0.00     0.045 C 
ENDROOT
BRANCH   2   5
HETATM    5  O1  UNL     1     -11.105  11.823   3.520  1.00  0.00    -0.391 OA
HETATM    6  H10 UNL     1     -10.478  11.273   4.020  1.00  0.00     0.210 HD
ENDBRANCH   2   5
TORSDOF 1
ENDMDL
MODEL 2
REMARK VINA RESULT:      -2.9      0.439      2.105
REMARK  1 active torsions:
REMARK  status: ('A' for Active; 'I' for Inactive)
REMARK    1  A    between atoms: C2_2  and  O1_5 
ROOT
HETATM    1  C1  UNL     1     -12.181  11.116   1.432  1.00  0.00     0.045 C 
HETATM    2  C2  UNL     1     -12.135  10.956   2.952  1.00  0.00     0.047 C 
HETATM    3  C3  UNL     1     -11.819   9.512   3.339  1.00  0.00     0.045 C 
HETATM    4  C4  UNL     1     -13.455  11.404   3.578  1.00  0.00     0.045 C 
ENDROOT
BRANCH   2   5
HETATM    5  O1  UNL     1     -11.106  11.800   3.467  1.00  0.00    -0.391 OA
HETATM    6  H10 UNL     1     -11.262  12.701   3.134  1.00  0.00     0.210 HD
ENDBRANCH   2   5
TORSDOF 1
ENDMDL
MODEL 3
REMARK VINA RESULT:      -2.9      9.360     10.091
REMARK  1 active torsions:
REMARK  status: ('A' for Active; 'I' for Inactive)
REMARK    1  A    between atoms: C2_2  and  O1_5 
ROOT
HETATM    1  C1  UNL     1     -16.958   2.742   5.534  1.00  0.00     0.045 C 
HETATM    2  C2  UNL     1     -16.775   3.377   6.912  1.00  0.00     0.047 C 
HETATM    3  C3  UNL     1     -17.784   2.815   7.911  1.00  0.00     0.045 C 
HETATM    4  C4  UNL     1     -16.896   4.898   6.822  1.00  0.00     0.045 C 
ENDROOT
BRANCH   2   5
HETATM    5  O1  UNL     1     -15.459   3.078   7.378  1.00  0.00    -0.391 OA
HETATM    6  H10 UNL     1     -14.946   3.905   7.380  1.00  0.00     0.210 HD
ENDBRANCH   2   5
TORSDOF 1
ENDMDL
MODEL 4
REMARK VINA RESULT:      -2.9      7.429      8.013
REMARK  1 active torsions:
REMARK  status: ('A' for Active; 'I' for Inactive)
REMARK    1  A    between atoms: C2_2  and  O1_5 
ROOT
HETATM    1  C1  UNL     1     -14.976   9.744  -4.295  1.00  0.00     0.045 C 
HETATM    2  C2  UNL     1     -16.013  10.753  -3.802  1.00  0.00     0.047 C 
HETATM    3  C3  UNL     1     -17.162  10.885  -4.799  1.00  0.00     0.045 C 
HETATM    4  C4  UNL     1     -15.362  12.112  -3.548  1.00  0.00     0.045 C 
ENDROOT
BRANCH   2   5
HETATM    5  O1  UNL     1     -16.540  10.290  -2.558  1.00  0.00    -0.391 OA
HETATM    6  H10 UNL     1     -17.316  10.835  -2.340  1.00  0.00     0.210 HD
ENDBRANCH   2   5
TORSDOF 1
ENDMDL
MODEL 5
REMARK VINA RESULT:      -2.9      7.437      8.019
REMARK  1 active torsions:
REMARK  status: ('A' for Active; 'I' for Inactive)
REMARK    1  A    between atoms: C2_2  and  O1_5 
ROOT
HETATM    1  C1  UNL     1     -15.345  12.107  -3.569  1.00  0.00     0.045 C 
HETATM    2  C2  UNL     1     -16.000  10.746  -3.802  1.00  0.00     0.047 C 
HETATM    3  C3  UNL     1     -14.977   9.726  -4.299  1.00  0.00     0.045 C 
HETATM    4  C4  UNL     1     -17.159  10.870  -4.791  1.00  0.00     0.045 C 
ENDROOT
BRANCH   2   5
HETATM    5  O1  UNL     1     -16.539  10.283  -2.564  1.00  0.00    -0.391 OA
HETATM    6  H10 UNL     1     -17.491  10.128  -2.690  1.00  0.00     0.210 HD
ENDBRANCH   2   5
TORSDOF 1
ENDMDL
MODEL 6
REMARK VINA RESULT:      -2.8      8.271      8.891
REMARK  1 active torsions:
REMARK  status: ('A' for Active; 'I' for Inactive)
REMARK    1  A    between atoms: C2_2  and  O1_5 
ROOT
HETATM    1  C1  UNL     1     -15.619  14.259  -4.190  1.00  0.00     0.045 C 
HETATM    2  C2  UNL     1     -15.325  15.671  -3.683  1.00  0.00     0.047 C 
HETATM    3  C3  UNL     1     -14.027  16.206  -4.284  1.00  0.00     0.045 C 
HETATM    4  C4  UNL     1     -15.259  15.690  -2.157  1.00  0.00     0.045 C 
ENDROOT
BRANCH   2   5
HETATM    5  O1  UNL     1     -16.397  16.528  -4.078  1.00  0.00    -0.391 OA
HETATM    6  H10 UNL     1     -16.529  17.187  -3.375  1.00  0.00     0.210 HD
ENDBRANCH   2   5
TORSDOF 1
ENDMDL
MODEL 7
REMARK VINA RESULT:      -2.8      3.398      3.974
REMARK  1 active torsions:
REMARK  status: ('A' for Active; 'I' for Inactive)
REMARK    1  A    between atoms: C2_2  and  O1_5 
ROOT
HETATM    1  C1  UNL     1     -13.072   8.093   2.023  1.00  0.00     0.045 C 
HETATM    2  C2  UNL     1     -14.271   8.539   2.860  1.00  0.00     0.047 C 
HETATM    3  C3  UNL     1     -13.911   9.742   3.730  1.00  0.00     0.045 C 
HETATM    4  C4  UNL     1     -14.782   7.386   3.722  1.00  0.00     0.045 C 
ENDROOT
BRANCH   2   5
HETATM    5  O1  UNL     1     -15.327   8.916   1.976  1.00  0.00    -0.391 OA
HETATM    6  H10 UNL     1     -16.095   8.351   2.167  1.00  0.00     0.210 HD
ENDBRANCH   2   5
TORSDOF 1
ENDMDL
MODEL 8
REMARK VINA RESULT:      -2.7      4.982      5.740
REMARK  1 active torsions:
REMARK  status: ('A' for Active; 'I' for Inactive)
REMARK    1  A    between atoms: C2_2  and  O1_5 
ROOT
HETATM    1  C1  UNL     1     -13.812   5.218   3.613  1.00  0.00     0.045 C 
HETATM    2  C2  UNL     1     -14.010   6.354   4.617  1.00  0.00     0.047 C 
HETATM    3  C3  UNL     1     -15.249   6.110   5.477  1.00  0.00     0.045 C 
HETATM    4  C4  UNL     1     -14.112   7.696   3.895  1.00  0.00     0.045 C 
ENDROOT
BRANCH   2   5
HETATM    5  O1  UNL     1     -12.867   6.410   5.471  1.00  0.00    -0.391 OA
HETATM    6  H10 UNL     1     -12.078   6.247   4.926  1.00  0.00     0.210 HD
ENDBRANCH   2   5
TORSDOF 1
ENDMDL
MODEL 9
REMARK VINA RESULT:      -2.7      4.913      5.538
REMARK  1 active torsions:
REMARK  status: ('A' for Active; 'I' for Inactive)
REMARK    1  A    between atoms: C2_2  and  O1_5 
ROOT
HETATM    1  C1  UNL     1     -13.852   7.734   3.874  1.00  0.00     0.045 C 
HETATM    2  C2  UNL     1     -13.862   6.376   4.574  1.00  0.00     0.047 C 
HETATM    3  C3  UNL     1     -13.711   5.240   3.563  1.00  0.00     0.045 C 
HETATM    4  C4  UNL     1     -15.141   6.202   5.391  1.00  0.00     0.045 C 
ENDROOT
BRANCH   2   5
HETATM    5  O1  UNL     1     -12.761   6.325   5.482  1.00  0.00    -0.391 OA
HETATM    6  H10 UNL     1     -12.888   5.556   6.065  1.00  0.00     0.210 HD
ENDBRANCH   2   5
TORSDOF 1
ENDMDL
