MODEL 1
REMARK VINA RESULT:      -4.9      0.000      0.000
REMARK  2 active torsions:
REMARK  status: ('A' for Active; 'I' for Inactive)
REMARK       I    between atoms: C2_2  and  N1_4 
REMARK    1  A    between atoms: N1_4  and  C3_5 
REMARK    2  A    between atoms: C6_8  and  O2_11 
ROOT
HETATM    1  C3  UNL     1     -14.843   6.414   4.757  1.00  0.00     0.034 A 
HETATM    2  C4  UNL     1     -15.582   6.892   3.665  1.00  0.00     0.032 A 
HETATM    3  C5  UNL     1     -15.241   8.097   3.048  1.00  0.00     0.039 A 
HETATM    4  C6  UNL     1     -14.159   8.828   3.517  1.00  0.00     0.065 A 
HETATM    5  C7  UNL     1     -13.414   8.372   4.598  1.00  0.00     0.039 A 
HETATM    6  C8  UNL     1     -13.757   7.164   5.216  1.00  0.00     0.032 A 
ENDROOT
BRANCH   1   7
HETATM    7  N1  UNL     1     -15.252   5.189   5.324  1.00  0.00    -0.328 N 
HETATM    8  C2  UNL     1     -16.122   4.999   6.382  1.00  0.00     0.218 C 
HETATM    9  C1  UNL     1     -16.319   3.538   6.703  1.00  0.00     0.117 C 
HETATM   10  O1  UNL     1     -16.717   5.864   7.014  1.00  0.00    -0.274 OA
HETATM   11  H4  UNL     1     -14.867   4.357   4.897  1.00  0.00     0.169 HD
ENDBRANCH   1   7
BRANCH   4  12
HETATM   12  O2  UNL     1     -13.859   9.998   2.888  1.00  0.00    -0.361 OA
HETATM   13  H9  UNL     1     -13.829  10.707   3.552  1.00  0.00     0.217 HD
ENDBRANCH   4  12
TORSDOF 2
ENDMDL
MODEL 2
REMARK VINA RESULT:      -4.8      2.214      3.115
REMARK  2 active torsions:
REMARK  status: ('A' for Active; 'I' for Inactive)
REMARK       I    between atoms: C2_2  and  N1_4 
REMARK    1  A    between atoms: N1_4  and  C3_5 
REMARK    2  A    between atoms: C6_8  and  O2_11 
ROOT
HETATM    1  C3  UNL     1     -13.653   8.506   3.457  1.00  0.00     0.034 A 
HETATM    2  C4  UNL     1     -12.280   8.350   3.220  1.00  0.00     0.032 A 
HETATM    3  C5  UNL     1     -11.436   9.461   3.162  1.00  0.00     0.039 A 
HETATM    4  C6  UNL     1     -11.961  10.733   3.343  1.00  0.00     0.065 A 
HETATM    5  C7  UNL     1     -13.320  10.910   3.579  1.00  0.00     0.039 A 
HETATM    6  C8  UNL     1     -14.164   9.795   3.636  1.00  0.00     0.032 A 
ENDROOT
BRANCH   1   7
HETATM    7  N1  UNL     1     -14.436   7.335   3.499  1.00  0.00    -0.328 N 
HETATM    8  C2  UNL     1     -14.811   6.611   4.617  1.00  0.00     0.218 C 
HETATM    9  C1  UNL     1     -15.656   5.413   4.264  1.00  0.00     0.117 C 
HETATM   10  O1  UNL     1     -14.546   6.867   5.786  1.00  0.00    -0.274 OA
HETATM   11  H4  UNL     1     -14.766   6.994   2.606  1.00  0.00     0.169 HD
ENDBRANCH   1   7
BRANCH   4  12
HETATM   12  O2  UNL     1     -11.106  11.790   3.280  1.00  0.00    -0.361 OA
HETATM   13  H9  UNL     1     -10.467  11.715   4.009  1.00  0.00     0.217 HD
ENDBRANCH   4  12
TORSDOF 2
ENDMDL
MODEL 3
REMARK VINA RESULT:      -4.8      2.011      5.214
REMARK  2 active torsions:
REMARK  status: ('A' for Active; 'I' for Inactive)
REMARK       I    between atoms: C2_2  and  N1_4 
REMARK    1  A    between atoms: N1_4  and  C3_5 
REMARK    2  A    between atoms: C6_8  and  O2_11 
ROOT
HETATM    1  C3  UNL     1     -15.978   5.403   5.184  1.00  0.00     0.034 A 
HETATM    2  C4  UNL     1     -15.880   4.146   4.570  1.00  0.00     0.032 A 
HETATM    3  C5  UNL     1     -16.407   3.009   5.187  1.00  0.00     0.039 A 
HETATM    4  C6  UNL     1     -17.035   3.125   6.419  1.00  0.00     0.065 A 
HETATM    5  C7  UNL     1     -17.142   4.362   7.044  1.00  0.00     0.039 A 
HETATM    6  C8  UNL     1     -16.614   5.500   6.424  1.00  0.00     0.032 A 
ENDROOT
BRANCH   1   7
HETATM    7  N1  UNL     1     -15.421   6.500   4.495  1.00  0.00    -0.328 N 
HETATM    8  C2  UNL     1     -14.184   7.084   4.700  1.00  0.00     0.218 C 
HETATM    9  C1  UNL     1     -13.937   8.240   3.763  1.00  0.00     0.117 C 
HETATM   10  O1  UNL     1     -13.331   6.742   5.510  1.00  0.00    -0.274 OA
HETATM   11  H4  UNL     1     -15.995   6.896   3.762  1.00  0.00     0.169 HD
ENDBRANCH   1   7
BRANCH   4  12
HETATM   12  O2  UNL     1     -17.536   1.994   6.988  1.00  0.00    -0.361 OA
HETATM   13  H9  UNL     1     -17.371   2.031   7.945  1.00  0.00     0.217 HD
ENDBRANCH   4  12
TORSDOF 2
ENDMDL
MODEL 4
REMARK VINA RESULT:      -4.7     10.592     13.094
REMARK  2 active torsions:
REMARK  status: ('A' for Active; 'I' for Inactive)
REMARK       I    between atoms: C2_2  and  N1_4 
REMARK    1  A    between atoms: N1_4  and  C3_5 
REMARK    2  A    between atoms: C6_8  and  O2_11 
ROOT
HETATM    1  C3  UNL     1     -16.947  13.129  -5.551  1.00  0.00     0.034 A 
HETATM    2  C4  UNL     1     -15.907  13.084  -4.612  1.00  0.00     0.032 A 
HETATM    3  C5  UNL     1     -15.670  11.926  -3.867  1.00  0.00     0.039 A 
HETATM    4  C6  UNL     1     -16.472  10.810  -4.058  1.00  0.00     0.065 A 
HETATM    5  C7  UNL     1     -17.509  10.834  -4.984  1.00  0.00     0.039 A 
HETATM    6  C8  UNL     1     -17.744  11.995  -5.730  1.00  0.00     0.032 A 
ENDROOT
BRANCH   1   7
HETATM    7  N1  UNL     1     -17.120  14.334  -6.262  1.00  0.00    -0.328 N 
HETATM    8  C2  UNL     1     -16.555  14.686  -7.474  1.00  0.00     0.218 C 
HETATM    9  C1  UNL     1     -16.979  16.063  -7.922  1.00  0.00     0.117 C 
HETATM   10  O1  UNL     1     -15.810  14.004  -8.168  1.00  0.00    -0.274 OA
HETATM   11  H4  UNL     1     -17.736  15.013  -5.833  1.00  0.00     0.169 HD
ENDBRANCH   1   7
BRANCH   4  12
HETATM   12  O2  UNL     1     -16.209   9.701  -3.313  1.00  0.00    -0.361 OA
HETATM   13  H9  UNL     1     -17.054   9.302  -3.045  1.00  0.00     0.217 HD
ENDBRANCH   4  12
TORSDOF 2
ENDMDL
MODEL 5
REMARK VINA RESULT:      -4.7     10.572     12.980
REMARK  2 active torsions:
REMARK  status: ('A' for Active; 'I' for Inactive)
REMARK       I    between atoms: C2_2  and  N1_4 
REMARK    1  A    between atoms: N1_4  and  C3_5 
REMARK    2  A    between atoms: C6_8  and  O2_11 
ROOT
HETATM    1  C3  UNL     1     -16.619  12.992  -5.927  1.00  0.00     0.034 A 
HETATM    2  C4  UNL     1     -17.565  11.958  -5.944  1.00  0.00     0.032 A 
HETATM    3  C5  UNL     1     -17.542  10.956  -4.971  1.00  0.00     0.039 A 
HETATM    4  C6  UNL     1     -16.573  10.984  -3.978  1.00  0.00     0.065 A 
HETATM    5  C7  UNL     1     -15.625  12.001  -3.944  1.00  0.00     0.039 A 
HETATM    6  C8  UNL     1     -15.651  13.004  -4.919  1.00  0.00     0.032 A 
ENDROOT
BRANCH   1   7
HETATM    7  N1  UNL     1     -16.711  13.965  -6.943  1.00  0.00    -0.328 N 
HETATM    8  C2  UNL     1     -16.748  15.339  -6.794  1.00  0.00     0.218 C 
HETATM    9  C1  UNL     1     -16.846  16.054  -8.119  1.00  0.00     0.117 C 
HETATM   10  O1  UNL     1     -16.688  15.971  -5.746  1.00  0.00    -0.274 OA
HETATM   11  H4  UNL     1     -16.745  13.609  -7.890  1.00  0.00     0.169 HD
ENDBRANCH   1   7
BRANCH   4  12
HETATM   12  O2  UNL     1     -16.584   9.989  -3.048  1.00  0.00    -0.361 OA
HETATM   13  H9  UNL     1     -15.744  10.015  -2.559  1.00  0.00     0.217 HD
ENDBRANCH   4  12
TORSDOF 2
ENDMDL
MODEL 6
REMARK VINA RESULT:      -4.6      2.939      6.250
REMARK  2 active torsions:
REMARK  status: ('A' for Active; 'I' for Inactive)
REMARK       I    between atoms: C2_2  and  N1_4 
REMARK    1  A    between atoms: N1_4  and  C3_5 
REMARK    2  A    between atoms: C6_8  and  O2_11 
ROOT
HETATM    1  C3  UNL     1     -16.041   3.092   4.839  1.00  0.00     0.034 A 
HETATM    2  C4  UNL     1     -15.082   2.089   4.640  1.00  0.00     0.032 A 
HETATM    3  C5  UNL     1     -15.346   0.768   5.009  1.00  0.00     0.039 A 
HETATM    4  C6  UNL     1     -16.570   0.445   5.575  1.00  0.00     0.065 A 
HETATM    5  C7  UNL     1     -17.535   1.424   5.781  1.00  0.00     0.039 A 
HETATM    6  C8  UNL     1     -17.269   2.747   5.411  1.00  0.00     0.032 A 
ENDROOT
BRANCH   1   7
HETATM    7  N1  UNL     1     -15.697   4.400   4.440  1.00  0.00    -0.328 N 
HETATM    8  C2  UNL     1     -15.781   5.559   5.189  1.00  0.00     0.218 C 
HETATM    9  C1  UNL     1     -15.317   6.771   4.419  1.00  0.00     0.117 C 
HETATM   10  O1  UNL     1     -16.154   5.663   6.352  1.00  0.00    -0.274 OA
HETATM   11  H4  UNL     1     -15.340   4.492   3.498  1.00  0.00     0.169 HD
ENDBRANCH   1   7
BRANCH   4  12
HETATM   12  O2  UNL     1     -16.790  -0.854   5.921  1.00  0.00    -0.361 OA
HETATM   13  H9  UNL     1     -16.991  -1.359   5.114  1.00  0.00     0.217 HD
ENDBRANCH   4  12
TORSDOF 2
ENDMDL
MODEL 7
REMARK VINA RESULT:      -4.5      2.214      4.867
REMARK  2 active torsions:
REMARK  status: ('A' for Active; 'I' for Inactive)
REMARK       I    between atoms: C2_2  and  N1_4 
REMARK    1  A    between atoms: N1_4  and  C3_5 
REMARK    2  A    between atoms: C6_8  and  O2_11 
ROOT
HETATM    1  C3  UNL     1     -14.317   6.579   4.146  1.00  0.00     0.034 A 
HETATM    2  C4  UNL     1     -15.499   6.292   4.844  1.00  0.00     0.032 A 
HETATM    3  C5  UNL     1     -15.973   4.981   4.932  1.00  0.00     0.039 A 
HETATM    4  C6  UNL     1     -15.267   3.953   4.325  1.00  0.00     0.065 A 
HETATM    5  C7  UNL     1     -14.093   4.216   3.629  1.00  0.00     0.039 A 
HETATM    6  C8  UNL     1     -13.619   5.530   3.541  1.00  0.00     0.032 A 
ENDROOT
BRANCH   1   7
HETATM    7  N1  UNL     1     -13.907   7.927   4.104  1.00  0.00    -0.328 N 
HETATM    8  C2  UNL     1     -14.305   8.902   3.207  1.00  0.00     0.218 C 
HETATM    9  C1  UNL     1     -13.650  10.232   3.483  1.00  0.00     0.117 C 
HETATM   10  O1  UNL     1     -15.109   8.779   2.290  1.00  0.00    -0.274 OA
HETATM   11  H4  UNL     1     -13.250   8.209   4.820  1.00  0.00     0.169 HD
ENDBRANCH   1   7
BRANCH   4  12
HETATM   12  O2  UNL     1     -15.762   2.689   4.435  1.00  0.00    -0.361 OA
HETATM   13  H9  UNL     1     -16.259   2.622   5.267  1.00  0.00     0.217 HD
ENDBRANCH   4  12
TORSDOF 2
ENDMDL
MODEL 8
REMARK VINA RESULT:      -4.5      2.338      2.764
REMARK  2 active torsions:
REMARK  status: ('A' for Active; 'I' for Inactive)
REMARK       I    between atoms: C2_2  and  N1_4 
REMARK    1  A    between atoms: N1_4  and  C3_5 
REMARK    2  A    between atoms: C6_8  and  O2_11 
ROOT
HETATM    1  C3  UNL     1     -15.709   4.738   4.853  1.00  0.00     0.034 A 
HETATM    2  C4  UNL     1     -14.738   4.497   3.870  1.00  0.00     0.032 A 
HETATM    3  C5  UNL     1     -13.682   5.390   3.679  1.00  0.00     0.039 A 
HETATM    4  C6  UNL     1     -13.591   6.527   4.469  1.00  0.00     0.065 A 
HETATM    5  C7  UNL     1     -14.543   6.785   5.449  1.00  0.00     0.039 A 
HETATM    6  C8  UNL     1     -15.601   5.888   5.640  1.00  0.00     0.032 A 
ENDROOT
BRANCH   1   7
HETATM    7  N1  UNL     1     -16.742   3.788   4.984  1.00  0.00    -0.328 N 
HETATM    8  C2  UNL     1     -16.640   2.490   5.451  1.00  0.00     0.218 C 
HETATM    9  C1  UNL     1     -17.970   1.777   5.447  1.00  0.00     0.117 C 
HETATM   10  O1  UNL     1     -15.631   1.929   5.859  1.00  0.00    -0.274 OA
HETATM   11  H4  UNL     1     -17.664   4.101   4.709  1.00  0.00     0.169 HD
ENDBRANCH   1   7
BRANCH   4  12
HETATM   12  O2  UNL     1     -12.547   7.373   4.251  1.00  0.00    -0.361 OA
HETATM   13  H9  UNL     1     -12.869   8.287   4.325  1.00  0.00     0.217 HD
ENDBRANCH   4  12
TORSDOF 2
ENDMDL
MODEL 9
REMARK VINA RESULT:      -4.4      3.450      4.016
REMARK  2 active torsions:
REMARK  status: ('A' for Active; 'I' for Inactive)
REMARK       I    between atoms: C2_2  and  N1_4 
REMARK    1  A    between atoms: N1_4  and  C3_5 
REMARK    2  A    between atoms: C6_8  and  O2_11 
ROOT
HETATM    1  C3  UNL     1     -15.259   3.305   4.390  1.00  0.00     0.034 A 
HETATM    2  C4  UNL     1     -16.188   4.210   4.924  1.00  0.00     0.032 A 
HETATM    3  C5  UNL     1     -15.989   5.587   4.806  1.00  0.00     0.039 A 
HETATM    4  C6  UNL     1     -14.862   6.065   4.153  1.00  0.00     0.065 A 
HETATM    5  C7  UNL     1     -13.929   5.185   3.618  1.00  0.00     0.039 A 
HETATM    6  C8  UNL     1     -14.130   3.805   3.736  1.00  0.00     0.032 A 
ENDROOT
BRANCH   1   7
HETATM    7  N1  UNL     1     -15.533   1.931   4.551  1.00  0.00    -0.328 N 
HETATM    8  C2  UNL     1     -15.273   0.909   3.656  1.00  0.00     0.218 C 
HETATM    9  C1  UNL     1     -15.708  -0.435   4.185  1.00  0.00     0.117 C 
HETATM   10  O1  UNL     1     -14.735   1.006   2.560  1.00  0.00    -0.274 OA
HETATM   11  H4  UNL     1     -15.964   1.669   5.429  1.00  0.00     0.169 HD
ENDBRANCH   1   7
BRANCH   4  12
HETATM   12  O2  UNL     1     -14.704   7.414   4.059  1.00  0.00    -0.361 OA
HETATM   13  H9  UNL     1     -15.096   7.714   3.222  1.00  0.00     0.217 HD
ENDBRANCH   4  12
TORSDOF 2
ENDMDL
