MODEL 1
REMARK VINA RESULT:      -5.2      0.000      0.000
REMARK  15 active torsions:
REMARK  status: ('A' for Active; 'I' for Inactive)
REMARK    1  A    between atoms: C2_2  and  C3_3 
REMARK    2  A    between atoms: C3_3  and  C4_4 
REMARK    3  A    between atoms: C4_4  and  C5_5 
REMARK    4  A    between atoms: C5_5  and  C6_6 
REMARK    5  A    between atoms: C6_6  and  C7_7 
REMARK    6  A    between atoms: C7_7  and  C8_8 
REMARK    7  A    between atoms: C8_8  and  C9_9 
REMARK    8  A    between atoms: C9_9  and  C10_10 
REMARK    9  A    between atoms: C10_10  and  C11_11 
REMARK   10  A    between atoms: C11_11  and  C12_12 
REMARK   11  A    between atoms: C12_12  and  C13_13 
REMARK   12  A    between atoms: C13_13  and  C14_14 
REMARK   13  A    between atoms: C14_14  and  C15_15 
REMARK   14  A    between atoms: C15_15  and  C16_16 
REMARK   15  A    between atoms: C16_16  and  O2_18 
ROOT
HETATM    1  C10 UNL     1     -15.652   5.575   4.257  1.00  0.00     0.000 C 
ENDROOT
BRANCH   1   2
HETATM    2  C9  UNL     1     -15.610   6.023   5.718  1.00  0.00     0.000 C 
BRANCH   2   3
HETATM    3  C8  UNL     1     -16.633   5.381   6.660  1.00  0.00     0.000 C 
BRANCH   3   4
HETATM    4  C7  UNL     1     -16.372   3.906   6.989  1.00  0.00     0.000 C 
BRANCH   4   5
HETATM    5  C6  UNL     1     -17.617   3.022   6.875  1.00  0.00     0.000 C 
BRANCH   5   6
HETATM    6  C5  UNL     1     -17.754   2.341   5.509  1.00  0.00     0.000 C 
BRANCH   6   7
HETATM    7  C4  UNL     1     -16.429   1.803   4.965  1.00  0.00     0.000 C 
BRANCH   7   8
HETATM    8  C3  UNL     1     -16.435   0.273   4.908  1.00  0.00    -0.000 C 
BRANCH   8   9
HETATM    9  C2  UNL     1     -15.425  -0.249   3.886  1.00  0.00    -0.005 C 
HETATM   10  C1  UNL     1     -14.758   0.889   3.129  1.00  0.00     0.005 C 
ENDBRANCH   8   9
ENDBRANCH   7   8
ENDBRANCH   6   7
ENDBRANCH   5   6
ENDBRANCH   4   5
ENDBRANCH   3   4
ENDBRANCH   2   3
ENDBRANCH   1   2
BRANCH   1  11
HETATM   11  C11 UNL     1     -14.454   4.746   3.783  1.00  0.00     0.000 C 
BRANCH  11  12
HETATM   12  C12 UNL     1     -13.147   5.521   3.583  1.00  0.00     0.000 C 
BRANCH  12  13
HETATM   13  C13 UNL     1     -12.941   6.010   2.148  1.00  0.00     0.001 C 
BRANCH  13  14
HETATM   14  C14 UNL     1     -12.782   7.533   2.100  1.00  0.00     0.010 C 
BRANCH  14  15
HETATM   15  C15 UNL     1     -13.304   8.215   3.365  1.00  0.00     0.110 C 
BRANCH  15  16
HETATM   16  C16 UNL     1     -14.366   9.244   3.081  1.00  0.00     0.139 C 
HETATM   17  O1  UNL     1     -14.410  10.397   3.473  1.00  0.00    -0.650 OA
BRANCH  16  18
HETATM   18  O2  UNL     1     -15.359   8.742   2.320  1.00  0.00    -0.776 OA
HETATM   19  H32 UNL     1     -14.947   8.630   1.438  1.00  0.00     0.167 HD
ENDBRANCH  16  18
ENDBRANCH  15  16
ENDBRANCH  14  15
ENDBRANCH  13  14
ENDBRANCH  12  13
ENDBRANCH  11  12
ENDBRANCH   1  11
TORSDOF 15
ENDMDL
MODEL 2
REMARK VINA RESULT:      -5.1      3.245      7.771
REMARK  15 active torsions:
REMARK  status: ('A' for Active; 'I' for Inactive)
REMARK    1  A    between atoms: C2_2  and  C3_3 
REMARK    2  A    between atoms: C3_3  and  C4_4 
REMARK    3  A    between atoms: C4_4  and  C5_5 
REMARK    4  A    between atoms: C5_5  and  C6_6 
REMARK    5  A    between atoms: C6_6  and  C7_7 
REMARK    6  A    between atoms: C7_7  and  C8_8 
REMARK    7  A    between atoms: C8_8  and  C9_9 
REMARK    8  A    between atoms: C9_9  and  C10_10 
REMARK    9  A    between atoms: C10_10  and  C11_11 
REMARK   10  A    between atoms: C11_11  and  C12_12 
REMARK   11  A    between atoms: C12_12  and  C13_13 
REMARK   12  A    between atoms: C13_13  and  C14_14 
REMARK   13  A    between atoms: C14_14  and  C15_15 
REMARK   14  A    between atoms: C15_15  and  C16_16 
REMARK   15  A    between atoms: C16_16  and  O2_18 
ROOT
HETATM    1  C10 UNL     1     -16.751   5.412   6.616  1.00  0.00     0.000 C 
ENDROOT
BRANCH   1   2
HETATM    2  C9  UNL     1     -15.598   5.427   5.612  1.00  0.00     0.000 C 
BRANCH   2   3
HETATM    3  C8  UNL     1     -15.824   6.223   4.322  1.00  0.00     0.000 C 
BRANCH   3   4
HETATM    4  C7  UNL     1     -14.615   7.039   3.848  1.00  0.00     0.000 C 
BRANCH   4   5
HETATM    5  C6  UNL     1     -13.671   7.451   4.980  1.00  0.00     0.000 C 
BRANCH   5   6
HETATM    6  C5  UNL     1     -13.469   8.967   5.079  1.00  0.00     0.000 C 
BRANCH   6   7
HETATM    7  C4  UNL     1     -13.378   9.656   3.715  1.00  0.00     0.000 C 
BRANCH   7   8
HETATM    8  C3  UNL     1     -13.769  11.132   3.815  1.00  0.00    -0.000 C 
BRANCH   8   9
HETATM    9  C2  UNL     1     -12.801  12.018   3.031  1.00  0.00    -0.005 C 
HETATM   10  C1  UNL     1     -11.498  11.293   2.735  1.00  0.00     0.005 C 
ENDBRANCH   8   9
ENDBRANCH   7   8
ENDBRANCH   6   7
ENDBRANCH   5   6
ENDBRANCH   4   5
ENDBRANCH   3   4
ENDBRANCH   2   3
ENDBRANCH   1   2
BRANCH   1  11
HETATM   11  C11 UNL     1     -17.466   4.067   6.784  1.00  0.00     0.000 C 
BRANCH  11  12
HETATM   12  C12 UNL     1     -17.320   3.086   5.617  1.00  0.00     0.000 C 
BRANCH  12  13
HETATM   13  C13 UNL     1     -17.632   1.637   5.995  1.00  0.00     0.001 C 
BRANCH  13  14
HETATM   14  C14 UNL     1     -16.471   0.707   5.627  1.00  0.00     0.010 C 
BRANCH  14  15
HETATM   15  C15 UNL     1     -15.385   1.418   4.819  1.00  0.00     0.110 C 
BRANCH  15  16
HETATM   16  C16 UNL     1     -15.046   0.706   3.538  1.00  0.00     0.139 C 
HETATM   17  O1  UNL     1     -14.100   0.913   2.798  1.00  0.00    -0.650 OA
BRANCH  16  18
HETATM   18  O2  UNL     1     -15.959  -0.237   3.232  1.00  0.00    -0.776 OA
HETATM   19  H32 UNL     1     -16.026  -0.193   2.255  1.00  0.00     0.167 HD
ENDBRANCH  16  18
ENDBRANCH  15  16
ENDBRANCH  14  15
ENDBRANCH  13  14
ENDBRANCH  12  13
ENDBRANCH  11  12
ENDBRANCH   1  11
TORSDOF 15
ENDMDL
MODEL 3
REMARK VINA RESULT:      -5.1      1.653      2.448
REMARK  15 active torsions:
REMARK  status: ('A' for Active; 'I' for Inactive)
REMARK    1  A    between atoms: C2_2  and  C3_3 
REMARK    2  A    between atoms: C3_3  and  C4_4 
REMARK    3  A    between atoms: C4_4  and  C5_5 
REMARK    4  A    between atoms: C5_5  and  C6_6 
REMARK    5  A    between atoms: C6_6  and  C7_7 
REMARK    6  A    between atoms: C7_7  and  C8_8 
REMARK    7  A    between atoms: C8_8  and  C9_9 
REMARK    8  A    between atoms: C9_9  and  C10_10 
REMARK    9  A    between atoms: C10_10  and  C11_11 
REMARK   10  A    between atoms: C11_11  and  C12_12 
REMARK   11  A    between atoms: C12_12  and  C13_13 
REMARK   12  A    between atoms: C13_13  and  C14_14 
REMARK   13  A    between atoms: C14_14  and  C15_15 
REMARK   14  A    between atoms: C15_15  and  C16_16 
REMARK   15  A    between atoms: C16_16  and  O2_18 
ROOT
HETATM    1  C10 UNL     1     -14.363   5.608   4.026  1.00  0.00     0.000 C 
ENDROOT
BRANCH   1   2
HETATM    2  C9  UNL     1     -15.817   5.718   4.483  1.00  0.00     0.000 C 
BRANCH   2   3
HETATM    3  C8  UNL     1     -16.070   5.613   5.990  1.00  0.00     0.000 C 
BRANCH   3   4
HETATM    4  C7  UNL     1     -16.494   4.221   6.477  1.00  0.00     0.000 C 
BRANCH   4   5
HETATM    5  C6  UNL     1     -17.278   3.419   5.436  1.00  0.00     0.000 C 
BRANCH   5   6
HETATM    6  C5  UNL     1     -16.994   1.914   5.490  1.00  0.00     0.000 C 
BRANCH   6   7
HETATM    7  C4  UNL     1     -15.501   1.579   5.468  1.00  0.00     0.000 C 
BRANCH   7   8
HETATM    8  C3  UNL     1     -14.870   1.953   4.125  1.00  0.00    -0.000 C 
BRANCH   8   9
HETATM    9  C2  UNL     1     -14.904   0.778   3.148  1.00  0.00    -0.005 C 
HETATM   10  C1  UNL     1     -14.850  -0.555   3.877  1.00  0.00     0.005 C 
ENDBRANCH   8   9
ENDBRANCH   7   8
ENDBRANCH   6   7
ENDBRANCH   5   6
ENDBRANCH   4   5
ENDBRANCH   3   4
ENDBRANCH   2   3
ENDBRANCH   1   2
BRANCH   1  11
HETATM   11  C11 UNL     1     -13.396   6.626   4.641  1.00  0.00     0.000 C 
BRANCH  11  12
HETATM   12  C12 UNL     1     -12.880   7.711   3.690  1.00  0.00     0.000 C 
BRANCH  12  13
HETATM   13  C13 UNL     1     -13.845   8.886   3.525  1.00  0.00     0.001 C 
BRANCH  13  14
HETATM   14  C14 UNL     1     -13.473  10.042   4.460  1.00  0.00     0.010 C 
BRANCH  14  15
HETATM   15  C15 UNL     1     -13.692  11.410   3.814  1.00  0.00     0.110 C 
BRANCH  15  16
HETATM   16  C16 UNL     1     -12.630  11.761   2.807  1.00  0.00     0.139 C 
HETATM   17  O1  UNL     1     -12.761  11.901   1.604  1.00  0.00    -0.650 OA
BRANCH  16  18
HETATM   18  O2  UNL     1     -11.418  11.892   3.382  1.00  0.00    -0.776 OA
HETATM   19  H32 UNL     1     -11.507  11.415   4.234  1.00  0.00     0.167 HD
ENDBRANCH  16  18
ENDBRANCH  15  16
ENDBRANCH  14  15
ENDBRANCH  13  14
ENDBRANCH  12  13
ENDBRANCH  11  12
ENDBRANCH   1  11
TORSDOF 15
ENDMDL
MODEL 4
REMARK VINA RESULT:      -4.8      2.948      7.136
REMARK  15 active torsions:
REMARK  status: ('A' for Active; 'I' for Inactive)
REMARK    1  A    between atoms: C2_2  and  C3_3 
REMARK    2  A    between atoms: C3_3  and  C4_4 
REMARK    3  A    between atoms: C4_4  and  C5_5 
REMARK    4  A    between atoms: C5_5  and  C6_6 
REMARK    5  A    between atoms: C6_6  and  C7_7 
REMARK    6  A    between atoms: C7_7  and  C8_8 
REMARK    7  A    between atoms: C8_8  and  C9_9 
REMARK    8  A    between atoms: C9_9  and  C10_10 
REMARK    9  A    between atoms: C10_10  and  C11_11 
REMARK   10  A    between atoms: C11_11  and  C12_12 
REMARK   11  A    between atoms: C12_12  and  C13_13 
REMARK   12  A    between atoms: C13_13  and  C14_14 
REMARK   13  A    between atoms: C14_14  and  C15_15 
REMARK   14  A    between atoms: C15_15  and  C16_16 
REMARK   15  A    between atoms: C16_16  and  O2_18 
ROOT
HETATM    1  C10 UNL     1     -16.632   3.395   5.314  1.00  0.00     0.000 C 
ENDROOT
BRANCH   1   2
HETATM    2  C9  UNL     1     -16.400   4.434   6.411  1.00  0.00     0.000 C 
BRANCH   2   3
HETATM    3  C8  UNL     1     -15.917   5.814   5.956  1.00  0.00     0.000 C 
BRANCH   3   4
HETATM    4  C7  UNL     1     -15.802   5.988   4.436  1.00  0.00     0.000 C 
BRANCH   4   5
HETATM    5  C6  UNL     1     -14.392   6.358   3.966  1.00  0.00     0.000 C 
BRANCH   5   6
HETATM    6  C5  UNL     1     -13.579   7.111   5.023  1.00  0.00     0.000 C 
BRANCH   6   7
HETATM    7  C4  UNL     1     -13.499   8.618   4.766  1.00  0.00     0.000 C 
BRANCH   7   8
HETATM    8  C3  UNL     1     -14.068   8.975   3.391  1.00  0.00    -0.000 C 
BRANCH   8   9
HETATM    9  C2  UNL     1     -13.065   9.783   2.568  1.00  0.00    -0.005 C 
HETATM   10  C1  UNL     1     -12.859  11.174   3.148  1.00  0.00     0.005 C 
ENDBRANCH   8   9
ENDBRANCH   7   8
ENDBRANCH   6   7
ENDBRANCH   5   6
ENDBRANCH   4   5
ENDBRANCH   3   4
ENDBRANCH   2   3
ENDBRANCH   1   2
BRANCH   1  11
HETATM   11  C11 UNL     1     -17.826   2.458   5.530  1.00  0.00     0.000 C 
BRANCH  11  12
HETATM   12  C12 UNL     1     -17.668   1.041   4.968  1.00  0.00     0.000 C 
BRANCH  12  13
HETATM   13  C13 UNL     1     -16.307   0.413   5.271  1.00  0.00     0.001 C 
BRANCH  13  14
HETATM   14  C14 UNL     1     -15.664  -0.153   4.000  1.00  0.00     0.010 C 
BRANCH  14  15
HETATM   15  C15 UNL     1     -14.970   0.925   3.167  1.00  0.00     0.110 C 
BRANCH  15  16
HETATM   16  C16 UNL     1     -13.500   1.044   3.469  1.00  0.00     0.139 C 
HETATM   17  O1  UNL     1     -12.595   0.339   3.057  1.00  0.00    -0.650 OA
BRANCH  16  18
HETATM   18  O2  UNL     1     -13.244   2.057   4.321  1.00  0.00    -0.776 OA
HETATM   19  H32 UNL     1     -13.219   2.850   3.745  1.00  0.00     0.167 HD
ENDBRANCH  16  18
ENDBRANCH  15  16
ENDBRANCH  14  15
ENDBRANCH  13  14
ENDBRANCH  12  13
ENDBRANCH  11  12
ENDBRANCH   1  11
TORSDOF 15
ENDMDL
MODEL 5
REMARK VINA RESULT:      -4.7      2.241      4.039
REMARK  15 active torsions:
REMARK  status: ('A' for Active; 'I' for Inactive)
REMARK    1  A    between atoms: C2_2  and  C3_3 
REMARK    2  A    between atoms: C3_3  and  C4_4 
REMARK    3  A    between atoms: C4_4  and  C5_5 
REMARK    4  A    between atoms: C5_5  and  C6_6 
REMARK    5  A    between atoms: C6_6  and  C7_7 
REMARK    6  A    between atoms: C7_7  and  C8_8 
REMARK    7  A    between atoms: C8_8  and  C9_9 
REMARK    8  A    between atoms: C9_9  and  C10_10 
REMARK    9  A    between atoms: C10_10  and  C11_11 
REMARK   10  A    between atoms: C11_11  and  C12_12 
REMARK   11  A    between atoms: C12_12  and  C13_13 
REMARK   12  A    between atoms: C13_13  and  C14_14 
REMARK   13  A    between atoms: C14_14  and  C15_15 
REMARK   14  A    between atoms: C15_15  and  C16_16 
REMARK   15  A    between atoms: C16_16  and  O2_18 
ROOT
HETATM    1  C10 UNL     1     -13.708   8.018   2.732  1.00  0.00     0.000 C 
ENDROOT
BRANCH   1   2
HETATM    2  C9  UNL     1     -12.788   7.411   3.792  1.00  0.00     0.000 C 
BRANCH   2   3
HETATM    3  C8  UNL     1     -13.364   6.256   4.617  1.00  0.00     0.000 C 
BRANCH   3   4
HETATM    4  C7  UNL     1     -14.473   5.456   3.921  1.00  0.00     0.000 C 
BRANCH   4   5
HETATM    5  C6  UNL     1     -15.869   5.720   4.491  1.00  0.00     0.000 C 
BRANCH   5   6
HETATM    6  C5  UNL     1     -15.906   5.726   6.023  1.00  0.00     0.000 C 
BRANCH   6   7
HETATM    7  C4  UNL     1     -16.532   4.464   6.620  1.00  0.00     0.000 C 
BRANCH   7   8
HETATM    8  C3  UNL     1     -17.032   3.522   5.522  1.00  0.00    -0.000 C 
BRANCH   8   9
HETATM    9  C2  UNL     1     -17.651   2.256   6.114  1.00  0.00    -0.005 C 
HETATM   10  C1  UNL     1     -17.582   1.092   5.138  1.00  0.00     0.005 C 
ENDBRANCH   8   9
ENDBRANCH   7   8
ENDBRANCH   6   7
ENDBRANCH   5   6
ENDBRANCH   4   5
ENDBRANCH   3   4
ENDBRANCH   2   3
ENDBRANCH   1   2
BRANCH   1  11
HETATM   11  C11 UNL     1     -14.390   9.334   3.121  1.00  0.00     0.000 C 
BRANCH  11  12
HETATM   12  C12 UNL     1     -13.576  10.262   4.029  1.00  0.00     0.000 C 
BRANCH  12  13
HETATM   13  C13 UNL     1     -13.245  11.609   3.384  1.00  0.00     0.001 C 
BRANCH  13  14
HETATM   14  C14 UNL     1     -11.833  11.605   2.788  1.00  0.00     0.010 C 
BRANCH  14  15
HETATM   15  C15 UNL     1     -11.772  10.903   1.432  1.00  0.00     0.110 C 
BRANCH  15  16
HETATM   16  C16 UNL     1     -12.691  11.519   0.411  1.00  0.00     0.139 C 
HETATM   17  O1  UNL     1     -12.957  12.699   0.264  1.00  0.00    -0.650 OA
BRANCH  16  18
HETATM   18  O2  UNL     1     -13.264  10.586  -0.375  1.00  0.00    -0.776 OA
HETATM   19  H32 UNL     1     -13.246  10.987  -1.269  1.00  0.00     0.167 HD
ENDBRANCH  16  18
ENDBRANCH  15  16
ENDBRANCH  14  15
ENDBRANCH  13  14
ENDBRANCH  12  13
ENDBRANCH  11  12
ENDBRANCH   1  11
TORSDOF 15
ENDMDL
MODEL 6
REMARK VINA RESULT:      -4.7      3.228      5.225
REMARK  15 active torsions:
REMARK  status: ('A' for Active; 'I' for Inactive)
REMARK    1  A    between atoms: C2_2  and  C3_3 
REMARK    2  A    between atoms: C3_3  and  C4_4 
REMARK    3  A    between atoms: C4_4  and  C5_5 
REMARK    4  A    between atoms: C5_5  and  C6_6 
REMARK    5  A    between atoms: C6_6  and  C7_7 
REMARK    6  A    between atoms: C7_7  and  C8_8 
REMARK    7  A    between atoms: C8_8  and  C9_9 
REMARK    8  A    between atoms: C9_9  and  C10_10 
REMARK    9  A    between atoms: C10_10  and  C11_11 
REMARK   10  A    between atoms: C11_11  and  C12_12 
REMARK   11  A    between atoms: C12_12  and  C13_13 
REMARK   12  A    between atoms: C13_13  and  C14_14 
REMARK   13  A    between atoms: C14_14  and  C15_15 
REMARK   14  A    between atoms: C15_15  and  C16_16 
REMARK   15  A    between atoms: C16_16  and  O2_18 
ROOT
HETATM    1  C10 UNL     1     -13.696  11.134   3.980  1.00  0.00     0.000 C 
ENDROOT
BRANCH   1   2
HETATM    2  C9  UNL     1     -13.991   9.689   3.578  1.00  0.00     0.000 C 
BRANCH   2   3
HETATM    3  C8  UNL     1     -13.124   8.606   4.228  1.00  0.00     0.000 C 
BRANCH   3   4
HETATM    4  C7  UNL     1     -13.903   7.423   4.818  1.00  0.00     0.000 C 
BRANCH   4   5
HETATM    5  C6  UNL     1     -15.099   6.991   3.966  1.00  0.00     0.000 C 
BRANCH   5   6
HETATM    6  C5  UNL     1     -15.716   5.663   4.417  1.00  0.00     0.000 C 
BRANCH   6   7
HETATM    7  C4  UNL     1     -16.213   5.686   5.864  1.00  0.00     0.000 C 
BRANCH   7   8
HETATM    8  C3  UNL     1     -16.546   4.276   6.357  1.00  0.00    -0.000 C 
BRANCH   8   9
HETATM    9  C2  UNL     1     -16.830   3.332   5.189  1.00  0.00    -0.005 C 
HETATM   10  C1  UNL     1     -17.818   2.244   5.580  1.00  0.00     0.005 C 
ENDBRANCH   8   9
ENDBRANCH   7   8
ENDBRANCH   6   7
ENDBRANCH   5   6
ENDBRANCH   4   5
ENDBRANCH   3   4
ENDBRANCH   2   3
ENDBRANCH   1   2
BRANCH   1  11
HETATM   11  C11 UNL     1     -12.860  11.942   2.982  1.00  0.00     0.000 C 
BRANCH  11  12
HETATM   12  C12 UNL     1     -11.445  11.417   2.722  1.00  0.00     0.000 C 
BRANCH  12  13
HETATM   13  C13 UNL     1     -11.226  10.942   1.284  1.00  0.00     0.001 C 
BRANCH  13  14
HETATM   14  C14 UNL     1     -12.533  10.973   0.486  1.00  0.00     0.010 C 
BRANCH  14  15
HETATM   15  C15 UNL     1     -12.315  11.350  -0.980  1.00  0.00     0.110 C 
BRANCH  15  16
HETATM   16  C16 UNL     1     -13.465  12.128  -1.563  1.00  0.00     0.139 C 
HETATM   17  O1  UNL     1     -14.646  11.829  -1.555  1.00  0.00    -0.650 OA
BRANCH  16  18
HETATM   18  O2  UNL     1     -13.050  13.259  -2.167  1.00  0.00    -0.776 OA
HETATM   19  H32 UNL     1     -12.108  13.332  -1.910  1.00  0.00     0.167 HD
ENDBRANCH  16  18
ENDBRANCH  15  16
ENDBRANCH  14  15
ENDBRANCH  13  14
ENDBRANCH  12  13
ENDBRANCH  11  12
ENDBRANCH   1  11
TORSDOF 15
ENDMDL
MODEL 7
REMARK VINA RESULT:      -4.5      1.384      2.681
REMARK  15 active torsions:
REMARK  status: ('A' for Active; 'I' for Inactive)
REMARK    1  A    between atoms: C2_2  and  C3_3 
REMARK    2  A    between atoms: C3_3  and  C4_4 
REMARK    3  A    between atoms: C4_4  and  C5_5 
REMARK    4  A    between atoms: C5_5  and  C6_6 
REMARK    5  A    between atoms: C6_6  and  C7_7 
REMARK    6  A    between atoms: C7_7  and  C8_8 
REMARK    7  A    between atoms: C8_8  and  C9_9 
REMARK    8  A    between atoms: C9_9  and  C10_10 
REMARK    9  A    between atoms: C10_10  and  C11_11 
REMARK   10  A    between atoms: C11_11  and  C12_12 
REMARK   11  A    between atoms: C12_12  and  C13_13 
REMARK   12  A    between atoms: C13_13  and  C14_14 
REMARK   13  A    between atoms: C14_14  and  C15_15 
REMARK   14  A    between atoms: C15_15  and  C16_16 
REMARK   15  A    between atoms: C16_16  and  O2_18 
ROOT
HETATM    1  C10 UNL     1     -17.133   2.826   5.243  1.00  0.00     0.000 C 
ENDROOT
BRANCH   1   2
HETATM    2  C9  UNL     1     -17.760   2.117   6.443  1.00  0.00     0.000 C 
BRANCH   2   3
HETATM    3  C8  UNL     1     -16.947   2.117   7.741  1.00  0.00     0.000 C 
BRANCH   3   4
HETATM    4  C7  UNL     1     -15.566   1.456   7.637  1.00  0.00     0.000 C 
BRANCH   4   5
HETATM    5  C6  UNL     1     -15.626  -0.067   7.486  1.00  0.00     0.000 C 
BRANCH   5   6
HETATM    6  C5  UNL     1     -14.900  -0.580   6.239  1.00  0.00     0.000 C 
BRANCH   6   7
HETATM    7  C4  UNL     1     -15.805  -0.682   5.009  1.00  0.00     0.000 C 
BRANCH   7   8
HETATM    8  C3  UNL     1     -15.000  -0.536   3.716  1.00  0.00    -0.000 C 
BRANCH   8   9
HETATM    9  C2  UNL     1     -14.970   0.916   3.240  1.00  0.00    -0.005 C 
HETATM   10  C1  UNL     1     -13.706   1.627   3.699  1.00  0.00     0.005 C 
ENDBRANCH   8   9
ENDBRANCH   7   8
ENDBRANCH   6   7
ENDBRANCH   5   6
ENDBRANCH   4   5
ENDBRANCH   3   4
ENDBRANCH   2   3
ENDBRANCH   1   2
BRANCH   1  11
HETATM   11  C11 UNL     1     -16.691   4.274   5.485  1.00  0.00     0.000 C 
BRANCH  11  12
HETATM   12  C12 UNL     1     -15.519   4.763   4.629  1.00  0.00     0.000 C 
BRANCH  12  13
HETATM   13  C13 UNL     1     -15.335   6.282   4.657  1.00  0.00     0.001 C 
BRANCH  13  14
HETATM   14  C14 UNL     1     -14.556   6.767   3.431  1.00  0.00     0.010 C 
BRANCH  14  15
HETATM   15  C15 UNL     1     -13.801   8.070   3.695  1.00  0.00     0.110 C 
BRANCH  15  16
HETATM   16  C16 UNL     1     -14.465   9.269   3.074  1.00  0.00     0.139 C 
HETATM   17  O1  UNL     1     -14.328  10.440   3.385  1.00  0.00    -0.650 OA
BRANCH  16  18
HETATM   18  O2  UNL     1     -15.312   8.919   2.086  1.00  0.00    -0.776 OA
HETATM   19  H32 UNL     1     -15.929   9.677   2.024  1.00  0.00     0.167 HD
ENDBRANCH  16  18
ENDBRANCH  15  16
ENDBRANCH  14  15
ENDBRANCH  13  14
ENDBRANCH  12  13
ENDBRANCH  11  12
ENDBRANCH   1  11
TORSDOF 15
ENDMDL
MODEL 8
REMARK VINA RESULT:      -4.4      3.985      6.728
REMARK  15 active torsions:
REMARK  status: ('A' for Active; 'I' for Inactive)
REMARK    1  A    between atoms: C2_2  and  C3_3 
REMARK    2  A    between atoms: C3_3  and  C4_4 
REMARK    3  A    between atoms: C4_4  and  C5_5 
REMARK    4  A    between atoms: C5_5  and  C6_6 
REMARK    5  A    between atoms: C6_6  and  C7_7 
REMARK    6  A    between atoms: C7_7  and  C8_8 
REMARK    7  A    between atoms: C8_8  and  C9_9 
REMARK    8  A    between atoms: C9_9  and  C10_10 
REMARK    9  A    between atoms: C10_10  and  C11_11 
REMARK   10  A    between atoms: C11_11  and  C12_12 
REMARK   11  A    between atoms: C12_12  and  C13_13 
REMARK   12  A    between atoms: C13_13  and  C14_14 
REMARK   13  A    between atoms: C14_14  and  C15_15 
REMARK   14  A    between atoms: C15_15  and  C16_16 
REMARK   15  A    between atoms: C16_16  and  O2_18 
ROOT
HETATM    1  C10 UNL     1     -12.596  11.779   2.106  1.00  0.00     0.000 C 
ENDROOT
BRANCH   1   2
HETATM    2  C9  UNL     1     -11.481  11.038   2.845  1.00  0.00     0.000 C 
BRANCH   2   3
HETATM    3  C8  UNL     1     -11.909   9.854   3.718  1.00  0.00     0.000 C 
BRANCH   3   4
HETATM    4  C7  UNL     1     -11.900   8.493   3.010  1.00  0.00     0.000 C 
BRANCH   4   5
HETATM    5  C6  UNL     1     -13.240   8.128   2.366  1.00  0.00     0.000 C 
BRANCH   5   6
HETATM    6  C5  UNL     1     -14.450   8.540   3.211  1.00  0.00     0.000 C 
BRANCH   6   7
HETATM    7  C4  UNL     1     -15.429   7.393   3.468  1.00  0.00     0.000 C 
BRANCH   7   8
HETATM    8  C3  UNL     1     -14.901   6.448   4.550  1.00  0.00    -0.000 C 
BRANCH   8   9
HETATM    9  C2  UNL     1     -16.044   5.837   5.360  1.00  0.00    -0.005 C 
HETATM   10  C1  UNL     1     -16.306   4.395   4.956  1.00  0.00     0.005 C 
ENDBRANCH   8   9
ENDBRANCH   7   8
ENDBRANCH   6   7
ENDBRANCH   5   6
ENDBRANCH   4   5
ENDBRANCH   3   4
ENDBRANCH   2   3
ENDBRANCH   1   2
BRANCH   1  11
HETATM   11  C11 UNL     1     -12.437  11.868   0.585  1.00  0.00     0.000 C 
BRANCH  11  12
HETATM   12  C12 UNL     1     -12.017  10.573  -0.117  1.00  0.00     0.000 C 
BRANCH  12  13
HETATM   13  C13 UNL     1     -11.723  10.754  -1.607  1.00  0.00     0.001 C 
BRANCH  13  14
HETATM   14  C14 UNL     1     -12.728  11.711  -2.257  1.00  0.00     0.010 C 
BRANCH  14  15
HETATM   15  C15 UNL     1     -13.804  10.976  -3.056  1.00  0.00     0.110 C 
BRANCH  15  16
HETATM   16  C16 UNL     1     -15.165  11.603  -2.922  1.00  0.00     0.139 C 
HETATM   17  O1  UNL     1     -15.682  12.426  -3.657  1.00  0.00    -0.650 OA
BRANCH  16  18
HETATM   18  O2  UNL     1     -15.811  11.169  -1.821  1.00  0.00    -0.776 OA
HETATM   19  H32 UNL     1     -15.945  11.981  -1.290  1.00  0.00     0.167 HD
ENDBRANCH  16  18
ENDBRANCH  15  16
ENDBRANCH  14  15
ENDBRANCH  13  14
ENDBRANCH  12  13
ENDBRANCH  11  12
ENDBRANCH   1  11
TORSDOF 15
ENDMDL
MODEL 9
REMARK VINA RESULT:      -4.4      3.848      8.511
REMARK  15 active torsions:
REMARK  status: ('A' for Active; 'I' for Inactive)
REMARK    1  A    between atoms: C2_2  and  C3_3 
REMARK    2  A    between atoms: C3_3  and  C4_4 
REMARK    3  A    between atoms: C4_4  and  C5_5 
REMARK    4  A    between atoms: C5_5  and  C6_6 
REMARK    5  A    between atoms: C6_6  and  C7_7 
REMARK    6  A    between atoms: C7_7  and  C8_8 
REMARK    7  A    between atoms: C8_8  and  C9_9 
REMARK    8  A    between atoms: C9_9  and  C10_10 
REMARK    9  A    between atoms: C10_10  and  C11_11 
REMARK   10  A    between atoms: C11_11  and  C12_12 
REMARK   11  A    between atoms: C12_12  and  C13_13 
REMARK   12  A    between atoms: C13_13  and  C14_14 
REMARK   13  A    between atoms: C14_14  and  C15_15 
REMARK   14  A    between atoms: C15_15  and  C16_16 
REMARK   15  A    between atoms: C16_16  and  O2_18 
ROOT
HETATM    1  C10 UNL     1     -15.610   6.760   3.841  1.00  0.00     0.000 C 
ENDROOT
BRANCH   1   2
HETATM    2  C9  UNL     1     -14.309   7.420   3.382  1.00  0.00     0.000 C 
BRANCH   2   3
HETATM    3  C8  UNL     1     -14.233   8.945   3.511  1.00  0.00     0.000 C 
BRANCH   3   4
HETATM    4  C7  UNL     1     -13.000   9.467   4.261  1.00  0.00     0.000 C 
BRANCH   4   5
HETATM    5  C6  UNL     1     -11.995  10.190   3.360  1.00  0.00     0.000 C 
BRANCH   5   6
HETATM    6  C5  UNL     1     -12.468  11.578   2.917  1.00  0.00     0.000 C 
BRANCH   6   7
HETATM    7  C4  UNL     1     -12.416  11.781   1.401  1.00  0.00     0.000 C 
BRANCH   7   8
HETATM    8  C3  UNL     1     -12.057  10.479   0.681  1.00  0.00    -0.000 C 
BRANCH   8   9
HETATM    9  C2  UNL     1     -11.973  10.686  -0.831  1.00  0.00    -0.005 C 
HETATM   10  C1  UNL     1     -12.944  11.757  -1.303  1.00  0.00     0.005 C 
ENDBRANCH   8   9
ENDBRANCH   7   8
ENDBRANCH   6   7
ENDBRANCH   5   6
ENDBRANCH   4   5
ENDBRANCH   3   4
ENDBRANCH   2   3
ENDBRANCH   1   2
BRANCH   1  11
HETATM   11  C11 UNL     1     -15.449   5.575   4.798  1.00  0.00     0.000 C 
BRANCH  11  12
HETATM   12  C12 UNL     1     -16.302   5.628   6.070  1.00  0.00     0.000 C 
BRANCH  12  13
HETATM   13  C13 UNL     1     -16.851   4.264   6.494  1.00  0.00     0.001 C 
BRANCH  13  14
HETATM   14  C14 UNL     1     -17.004   3.331   5.288  1.00  0.00     0.010 C 
BRANCH  14  15
HETATM   15  C15 UNL     1     -16.122   2.087   5.395  1.00  0.00     0.110 C 
BRANCH  15  16
HETATM   16  C16 UNL     1     -16.913   0.807   5.414  1.00  0.00     0.139 C 
HETATM   17  O1  UNL     1     -16.496  -0.328   5.257  1.00  0.00    -0.650 OA
BRANCH  16  18
HETATM   18  O2  UNL     1     -18.227   1.032   5.606  1.00  0.00    -0.776 OA
HETATM   19  H32 UNL     1     -18.310   1.136   6.577  1.00  0.00     0.167 HD
ENDBRANCH  16  18
ENDBRANCH  15  16
ENDBRANCH  14  15
ENDBRANCH  13  14
ENDBRANCH  12  13
ENDBRANCH  11  12
ENDBRANCH   1  11
TORSDOF 15
ENDMDL
