MODEL 1
REMARK VINA RESULT:      -5.4      0.000      0.000
REMARK  0 active torsions:
REMARK  status: ('A' for Active; 'I' for Inactive)
ROOT
HETATM    1  C1  UNL     1     -15.688   6.168   5.626  1.00  0.00     0.001 A 
HETATM    2  C2  UNL     1     -15.165   5.530   4.504  1.00  0.00     0.001 A 
HETATM    3  C3  UNL     1     -15.420   4.175   4.290  1.00  0.00     0.012 A 
HETATM    4  C4  UNL     1     -16.203   3.440   5.196  1.00  0.00    -0.026 A 
HETATM    5  C5  UNL     1     -16.469   2.075   4.995  1.00  0.00     0.012 A 
HETATM    6  C6  UNL     1     -17.248   1.358   5.905  1.00  0.00     0.001 A 
HETATM    7  C7  UNL     1     -17.771   1.996   7.027  1.00  0.00     0.001 A 
HETATM    8  C8  UNL     1     -17.516   3.352   7.241  1.00  0.00     0.012 A 
HETATM    9  C9  UNL     1     -16.733   4.087   6.335  1.00  0.00    -0.026 A 
HETATM   10  C10 UNL     1     -16.467   5.451   6.537  1.00  0.00     0.012 A 
ENDROOT
TORSDOF 0
ENDMDL
MODEL 2
REMARK VINA RESULT:      -5.4      0.056      2.070
REMARK  0 active torsions:
REMARK  status: ('A' for Active; 'I' for Inactive)
ROOT
HETATM    1  C1  UNL     1     -15.209   5.504   4.505  1.00  0.00     0.001 A 
HETATM    2  C2  UNL     1     -15.714   6.151   5.629  1.00  0.00     0.001 A 
HETATM    3  C3  UNL     1     -16.478   5.443   6.558  1.00  0.00     0.012 A 
HETATM    4  C4  UNL     1     -16.747   4.077   6.373  1.00  0.00    -0.026 A 
HETATM    5  C5  UNL     1     -17.514   3.350   7.298  1.00  0.00     0.012 A 
HETATM    6  C6  UNL     1     -17.773   1.992   7.100  1.00  0.00     0.001 A 
HETATM    7  C7  UNL     1     -17.268   1.344   5.976  1.00  0.00     0.001 A 
HETATM    8  C8  UNL     1     -16.504   2.053   5.047  1.00  0.00     0.012 A 
HETATM    9  C9  UNL     1     -16.235   3.419   5.232  1.00  0.00    -0.026 A 
HETATM   10  C10 UNL     1     -15.468   4.146   4.307  1.00  0.00     0.012 A 
ENDROOT
TORSDOF 0
ENDMDL
MODEL 3
REMARK VINA RESULT:      -5.4      0.211      4.024
REMARK  0 active torsions:
REMARK  status: ('A' for Active; 'I' for Inactive)
ROOT
HETATM    1  C1  UNL     1     -17.120   1.385   5.841  1.00  0.00     0.001 A 
HETATM    2  C2  UNL     1     -17.707   2.075   6.898  1.00  0.00     0.001 A 
HETATM    3  C3  UNL     1     -17.477   3.443   7.052  1.00  0.00     0.012 A 
HETATM    4  C4  UNL     1     -16.657   4.139   6.148  1.00  0.00    -0.026 A 
HETATM    5  C5  UNL     1     -16.417   5.516   6.288  1.00  0.00     0.012 A 
HETATM    6  C6  UNL     1     -15.598   6.193   5.382  1.00  0.00     0.001 A 
HETATM    7  C7  UNL     1     -15.011   5.503   4.325  1.00  0.00     0.001 A 
HETATM    8  C8  UNL     1     -15.241   4.135   4.171  1.00  0.00     0.012 A 
HETATM    9  C9  UNL     1     -16.061   3.439   5.075  1.00  0.00    -0.026 A 
HETATM   10  C10 UNL     1     -16.301   2.062   4.935  1.00  0.00     0.012 A 
ENDROOT
TORSDOF 0
ENDMDL
MODEL 4
REMARK VINA RESULT:      -5.3      1.048      2.632
REMARK  0 active torsions:
REMARK  status: ('A' for Active; 'I' for Inactive)
ROOT
HETATM    1  C1  UNL     1     -13.812   5.388   3.573  1.00  0.00     0.001 A 
HETATM    2  C2  UNL     1     -13.962   6.506   4.389  1.00  0.00     0.001 A 
HETATM    3  C3  UNL     1     -14.907   6.498   5.417  1.00  0.00     0.012 A 
HETATM    4  C4  UNL     1     -15.712   5.369   5.642  1.00  0.00    -0.026 A 
HETATM    5  C5  UNL     1     -16.666   5.345   6.672  1.00  0.00     0.012 A 
HETATM    6  C6  UNL     1     -17.460   4.216   6.883  1.00  0.00     0.001 A 
HETATM    7  C7  UNL     1     -17.309   3.097   6.068  1.00  0.00     0.001 A 
HETATM    8  C8  UNL     1     -16.365   3.105   5.040  1.00  0.00     0.012 A 
HETATM    9  C9  UNL     1     -15.560   4.234   4.814  1.00  0.00    -0.026 A 
HETATM   10  C10 UNL     1     -14.605   4.259   3.784  1.00  0.00     0.012 A 
ENDROOT
TORSDOF 0
ENDMDL
MODEL 5
REMARK VINA RESULT:      -5.3      1.048      1.754
REMARK  0 active torsions:
REMARK  status: ('A' for Active; 'I' for Inactive)
ROOT
HETATM    1  C1  UNL     1     -13.994   6.463   4.378  1.00  0.00     0.001 A 
HETATM    2  C2  UNL     1     -13.848   5.332   3.579  1.00  0.00     0.001 A 
HETATM    3  C3  UNL     1     -14.642   4.207   3.812  1.00  0.00     0.012 A 
HETATM    4  C4  UNL     1     -15.591   4.200   4.847  1.00  0.00    -0.026 A 
HETATM    5  C5  UNL     1     -16.398   3.077   5.093  1.00  0.00     0.012 A 
HETATM    6  C6  UNL     1     -17.337   3.085   6.127  1.00  0.00     0.001 A 
HETATM    7  C7  UNL     1     -17.482   4.216   6.925  1.00  0.00     0.001 A 
HETATM    8  C8  UNL     1     -16.688   5.341   6.693  1.00  0.00     0.012 A 
HETATM    9  C9  UNL     1     -15.739   5.348   5.658  1.00  0.00    -0.026 A 
HETATM   10  C10 UNL     1     -14.933   6.471   5.411  1.00  0.00     0.012 A 
ENDROOT
TORSDOF 0
ENDMDL
MODEL 6
REMARK VINA RESULT:      -4.8     12.998     15.294
REMARK  0 active torsions:
REMARK  status: ('A' for Active; 'I' for Inactive)
ROOT
HETATM    1  C1  UNL     1     -16.714  11.121  -4.473  1.00  0.00     0.001 A 
HETATM    2  C2  UNL     1     -17.715  11.133  -5.441  1.00  0.00     0.001 A 
HETATM    3  C3  UNL     1     -17.937  12.283  -6.201  1.00  0.00     0.012 A 
HETATM    4  C4  UNL     1     -17.159  13.435  -6.002  1.00  0.00    -0.026 A 
HETATM    5  C5  UNL     1     -17.370  14.600  -6.759  1.00  0.00     0.012 A 
HETATM    6  C6  UNL     1     -16.588  15.738  -6.549  1.00  0.00     0.001 A 
HETATM    7  C7  UNL     1     -15.587  15.726  -5.581  1.00  0.00     0.001 A 
HETATM    8  C8  UNL     1     -15.365  14.576  -4.822  1.00  0.00     0.012 A 
HETATM    9  C9  UNL     1     -16.143  13.423  -5.020  1.00  0.00    -0.026 A 
HETATM   10  C10 UNL     1     -15.933  12.259  -4.264  1.00  0.00     0.012 A 
ENDROOT
TORSDOF 0
ENDMDL
MODEL 7
REMARK VINA RESULT:      -4.8     12.957     15.292
REMARK  0 active torsions:
REMARK  status: ('A' for Active; 'I' for Inactive)
ROOT
HETATM    1  C1  UNL     1     -17.714  11.093  -5.422  1.00  0.00     0.001 A 
HETATM    2  C2  UNL     1     -16.706  11.075  -4.462  1.00  0.00     0.001 A 
HETATM    3  C3  UNL     1     -15.922  12.211  -4.253  1.00  0.00     0.012 A 
HETATM    4  C4  UNL     1     -16.137  13.379  -5.003  1.00  0.00    -0.026 A 
HETATM    5  C5  UNL     1     -15.357  14.531  -4.805  1.00  0.00     0.012 A 
HETATM    6  C6  UNL     1     -15.583  15.684  -5.559  1.00  0.00     0.001 A 
HETATM    7  C7  UNL     1     -16.591  15.701  -6.519  1.00  0.00     0.001 A 
HETATM    8  C8  UNL     1     -17.375  14.565  -6.727  1.00  0.00     0.012 A 
HETATM    9  C9  UNL     1     -17.160  13.397  -5.978  1.00  0.00    -0.026 A 
HETATM   10  C10 UNL     1     -17.940  12.246  -6.176  1.00  0.00     0.012 A 
ENDROOT
TORSDOF 0
ENDMDL
MODEL 8
REMARK VINA RESULT:      -4.8     13.004     14.951
REMARK  0 active torsions:
REMARK  status: ('A' for Active; 'I' for Inactive)
ROOT
HETATM    1  C1  UNL     1     -16.672  15.711  -6.574  1.00  0.00     0.001 A 
HETATM    2  C2  UNL     1     -15.651  15.710  -5.629  1.00  0.00     0.001 A 
HETATM    3  C3  UNL     1     -15.402  14.564  -4.872  1.00  0.00     0.012 A 
HETATM    4  C4  UNL     1     -16.171  13.403  -5.053  1.00  0.00    -0.026 A 
HETATM    5  C5  UNL     1     -15.933  12.241  -4.300  1.00  0.00     0.012 A 
HETATM    6  C6  UNL     1     -16.708  11.096  -4.491  1.00  0.00     0.001 A 
HETATM    7  C7  UNL     1     -17.730  11.096  -5.437  1.00  0.00     0.001 A 
HETATM    8  C8  UNL     1     -17.979  12.243  -6.194  1.00  0.00     0.012 A 
HETATM    9  C9  UNL     1     -17.209  13.404  -6.013  1.00  0.00    -0.026 A 
HETATM   10  C10 UNL     1     -17.447  14.565  -6.766  1.00  0.00     0.012 A 
ENDROOT
TORSDOF 0
ENDMDL
MODEL 9
REMARK VINA RESULT:      -4.8     13.043     14.956
REMARK  0 active torsions:
REMARK  status: ('A' for Active; 'I' for Inactive)
ROOT
HETATM    1  C1  UNL     1     -15.555  15.746  -5.584  1.00  0.00     0.001 A 
HETATM    2  C2  UNL     1     -16.557  15.785  -6.550  1.00  0.00     0.001 A 
HETATM    3  C3  UNL     1     -17.354  14.661  -6.773  1.00  0.00     0.012 A 
HETATM    4  C4  UNL     1     -17.160  13.484  -6.032  1.00  0.00    -0.026 A 
HETATM    5  C5  UNL     1     -17.953  12.345  -6.245  1.00  0.00     0.012 A 
HETATM    6  C6  UNL     1     -17.747  11.182  -5.500  1.00  0.00     0.001 A 
HETATM    7  C7  UNL     1     -16.745  11.143  -4.534  1.00  0.00     0.001 A 
HETATM    8  C8  UNL     1     -15.947  12.267  -4.311  1.00  0.00     0.012 A 
HETATM    9  C9  UNL     1     -16.142  13.444  -5.052  1.00  0.00    -0.026 A 
HETATM   10  C10 UNL     1     -15.348  14.583  -4.840  1.00  0.00     0.012 A 
ENDROOT
TORSDOF 0
ENDMDL
