MODEL 1
REMARK VINA RESULT:      -4.3      0.000      0.000
REMARK  7 active torsions:
REMARK  status: ('A' for Active; 'I' for Inactive)
REMARK    1  A    between atoms: C2_2  and  C3_3 
REMARK    2  A    between atoms: C3_3  and  C4_4 
REMARK    3  A    between atoms: C4_4  and  C5_5 
REMARK    4  A    between atoms: C5_5  and  C6_6 
REMARK    5  A    between atoms: C6_6  and  C7_7 
REMARK    6  A    between atoms: C7_7  and  C8_8 
REMARK    7  A    between atoms: C8_8  and  O1_9 
ROOT
HETATM    1  C5  UNL     1     -16.069   5.673   6.063  1.00  0.00     0.000 C 
ENDROOT
BRANCH   1   2
HETATM    2  C4  UNL     1     -16.932   4.513   6.566  1.00  0.00     0.000 C 
BRANCH   2   3
HETATM    3  C3  UNL     1     -16.999   3.337   5.586  1.00  0.00    -0.000 C 
BRANCH   3   4
HETATM    4  C2  UNL     1     -17.644   2.084   6.180  1.00  0.00    -0.005 C 
HETATM    5  C1  UNL     1     -18.425   1.311   5.128  1.00  0.00     0.005 C 
ENDBRANCH   3   4
ENDBRANCH   2   3
ENDBRANCH   1   2
BRANCH   1   6
HETATM    6  C6  UNL     1     -15.906   5.694   4.539  1.00  0.00     0.002 C 
BRANCH   6   7
HETATM    7  C7  UNL     1     -14.731   6.555   4.065  1.00  0.00     0.026 C 
BRANCH   7   8
HETATM    8  C8  UNL     1     -13.920   7.128   5.222  1.00  0.00     0.164 C 
BRANCH   8   9
HETATM    9  O1  UNL     1     -12.736   6.375   5.439  1.00  0.00    -0.401 OA
HETATM   10  H18 UNL     1     -12.535   6.407   6.390  1.00  0.00     0.209 HD
ENDBRANCH   8   9
ENDBRANCH   7   8
ENDBRANCH   6   7
ENDBRANCH   1   6
TORSDOF 7
ENDMDL
MODEL 2
REMARK VINA RESULT:      -4.1      2.095      2.453
REMARK  7 active torsions:
REMARK  status: ('A' for Active; 'I' for Inactive)
REMARK    1  A    between atoms: C2_2  and  C3_3 
REMARK    2  A    between atoms: C3_3  and  C4_4 
REMARK    3  A    between atoms: C4_4  and  C5_5 
REMARK    4  A    between atoms: C5_5  and  C6_6 
REMARK    5  A    between atoms: C6_6  and  C7_7 
REMARK    6  A    between atoms: C7_7  and  C8_8 
REMARK    7  A    between atoms: C8_8  and  O1_9 
ROOT
HETATM    1  C5  UNL     1     -15.959   5.315   5.268  1.00  0.00     0.000 C 
ENDROOT
BRANCH   1   2
HETATM    2  C4  UNL     1     -16.118   3.820   4.978  1.00  0.00     0.000 C 
BRANCH   2   3
HETATM    3  C3  UNL     1     -17.324   3.190   5.682  1.00  0.00    -0.000 C 
BRANCH   3   4
HETATM    4  C2  UNL     1     -17.504   3.663   7.125  1.00  0.00    -0.005 C 
HETATM    5  C1  UNL     1     -17.727   2.491   8.069  1.00  0.00     0.005 C 
ENDBRANCH   3   4
ENDBRANCH   2   3
ENDBRANCH   1   2
BRANCH   1   6
HETATM    6  C6  UNL     1     -15.079   6.042   4.245  1.00  0.00     0.002 C 
BRANCH   6   7
HETATM    7  C7  UNL     1     -15.769   7.244   3.593  1.00  0.00     0.026 C 
BRANCH   7   8
HETATM    8  C8  UNL     1     -14.776   8.230   2.983  1.00  0.00     0.164 C 
BRANCH   8   9
HETATM    9  O1  UNL     1     -15.394   9.022   1.979  1.00  0.00    -0.401 OA
HETATM   10  H18 UNL     1     -15.264   9.955   2.218  1.00  0.00     0.209 HD
ENDBRANCH   8   9
ENDBRANCH   7   8
ENDBRANCH   6   7
ENDBRANCH   1   6
TORSDOF 7
ENDMDL
MODEL 3
REMARK VINA RESULT:      -4.0      2.908      5.227
REMARK  7 active torsions:
REMARK  status: ('A' for Active; 'I' for Inactive)
REMARK    1  A    between atoms: C2_2  and  C3_3 
REMARK    2  A    between atoms: C3_3  and  C4_4 
REMARK    3  A    between atoms: C4_4  and  C5_5 
REMARK    4  A    between atoms: C5_5  and  C6_6 
REMARK    5  A    between atoms: C6_6  and  C7_7 
REMARK    6  A    between atoms: C7_7  and  C8_8 
REMARK    7  A    between atoms: C8_8  and  O1_9 
ROOT
HETATM    1  C5  UNL     1     -16.480   3.230   5.753  1.00  0.00     0.000 C 
ENDROOT
BRANCH   1   2
HETATM    2  C4  UNL     1     -16.656   4.478   6.622  1.00  0.00     0.000 C 
BRANCH   2   3
HETATM    3  C3  UNL     1     -16.042   5.739   6.008  1.00  0.00    -0.000 C 
BRANCH   3   4
HETATM    4  C2  UNL     1     -15.878   5.661   4.489  1.00  0.00    -0.005 C 
HETATM    5  C1  UNL     1     -14.456   5.997   4.066  1.00  0.00     0.005 C 
ENDBRANCH   3   4
ENDBRANCH   2   3
ENDBRANCH   1   2
BRANCH   1   6
HETATM    6  C6  UNL     1     -17.795   2.495   5.470  1.00  0.00     0.002 C 
BRANCH   6   7
HETATM    7  C7  UNL     1     -17.598   1.034   5.054  1.00  0.00     0.026 C 
BRANCH   7   8
HETATM    8  C8  UNL     1     -16.375   0.398   5.709  1.00  0.00     0.164 C 
BRANCH   8   9
HETATM    9  O1  UNL     1     -16.563  -0.997   5.895  1.00  0.00    -0.401 OA
HETATM   10  H18 UNL     1     -15.940  -1.290   6.582  1.00  0.00     0.209 HD
ENDBRANCH   8   9
ENDBRANCH   7   8
ENDBRANCH   6   7
ENDBRANCH   1   6
TORSDOF 7
ENDMDL
MODEL 4
REMARK VINA RESULT:      -3.8      1.386      2.194
REMARK  7 active torsions:
REMARK  status: ('A' for Active; 'I' for Inactive)
REMARK    1  A    between atoms: C2_2  and  C3_3 
REMARK    2  A    between atoms: C3_3  and  C4_4 
REMARK    3  A    between atoms: C4_4  and  C5_5 
REMARK    4  A    between atoms: C5_5  and  C6_6 
REMARK    5  A    between atoms: C6_6  and  C7_7 
REMARK    6  A    between atoms: C7_7  and  C8_8 
REMARK    7  A    between atoms: C8_8  and  O1_9 
ROOT
HETATM    1  C5  UNL     1     -14.740   5.817   4.269  1.00  0.00     0.000 C 
ENDROOT
BRANCH   1   2
HETATM    2  C4  UNL     1     -16.070   5.227   4.744  1.00  0.00     0.000 C 
BRANCH   2   3
HETATM    3  C3  UNL     1     -16.243   5.264   6.265  1.00  0.00    -0.000 C 
BRANCH   3   4
HETATM    4  C2  UNL     1     -17.177   4.179   6.801  1.00  0.00    -0.005 C 
HETATM    5  C1  UNL     1     -17.328   3.037   5.808  1.00  0.00     0.005 C 
ENDBRANCH   3   4
ENDBRANCH   2   3
ENDBRANCH   1   2
BRANCH   1   6
HETATM    6  C6  UNL     1     -14.850   7.276   3.813  1.00  0.00     0.002 C 
BRANCH   6   7
HETATM    7  C7  UNL     1     -13.492   7.940   3.563  1.00  0.00     0.026 C 
BRANCH   7   8
HETATM    8  C8  UNL     1     -13.244   9.132   4.482  1.00  0.00     0.164 C 
BRANCH   8   9
HETATM    9  O1  UNL     1     -13.462   8.783   5.842  1.00  0.00    -0.401 OA
HETATM   10  H18 UNL     1     -13.037   9.462   6.393  1.00  0.00     0.209 HD
ENDBRANCH   8   9
ENDBRANCH   7   8
ENDBRANCH   6   7
ENDBRANCH   1   6
TORSDOF 7
ENDMDL
MODEL 5
REMARK VINA RESULT:      -3.7      3.373      4.874
REMARK  7 active torsions:
REMARK  status: ('A' for Active; 'I' for Inactive)
REMARK    1  A    between atoms: C2_2  and  C3_3 
REMARK    2  A    between atoms: C3_3  and  C4_4 
REMARK    3  A    between atoms: C4_4  and  C5_5 
REMARK    4  A    between atoms: C5_5  and  C6_6 
REMARK    5  A    between atoms: C6_6  and  C7_7 
REMARK    6  A    between atoms: C7_7  and  C8_8 
REMARK    7  A    between atoms: C8_8  and  O1_9 
ROOT
HETATM    1  C5  UNL     1     -13.285   7.860   3.452  1.00  0.00     0.000 C 
ENDROOT
BRANCH   1   2
HETATM    2  C4  UNL     1     -13.682   7.888   4.930  1.00  0.00     0.000 C 
BRANCH   2   3
HETATM    3  C3  UNL     1     -14.450   6.640   5.377  1.00  0.00    -0.000 C 
BRANCH   3   4
HETATM    4  C2  UNL     1     -15.604   6.268   4.446  1.00  0.00    -0.005 C 
HETATM    5  C1  UNL     1     -16.153   4.886   4.768  1.00  0.00     0.005 C 
ENDBRANCH   3   4
ENDBRANCH   2   3
ENDBRANCH   1   2
BRANCH   1   6
HETATM    6  C6  UNL     1     -13.617   9.159   2.709  1.00  0.00     0.002 C 
BRANCH   6   7
HETATM    7  C7  UNL     1     -13.478  10.412   3.578  1.00  0.00     0.026 C 
BRANCH   7   8
HETATM    8  C8  UNL     1     -12.640  11.498   2.911  1.00  0.00     0.164 C 
BRANCH   8   9
HETATM    9  O1  UNL     1     -13.139  12.791   3.220  1.00  0.00    -0.401 OA
HETATM   10  H18 UNL     1     -12.388  13.408   3.209  1.00  0.00     0.209 HD
ENDBRANCH   8   9
ENDBRANCH   7   8
ENDBRANCH   6   7
ENDBRANCH   1   6
TORSDOF 7
ENDMDL
MODEL 6
REMARK VINA RESULT:      -3.7      2.973      4.635
REMARK  7 active torsions:
REMARK  status: ('A' for Active; 'I' for Inactive)
REMARK    1  A    between atoms: C2_2  and  C3_3 
REMARK    2  A    between atoms: C3_3  and  C4_4 
REMARK    3  A    between atoms: C4_4  and  C5_5 
REMARK    4  A    between atoms: C5_5  and  C6_6 
REMARK    5  A    between atoms: C6_6  and  C7_7 
REMARK    6  A    between atoms: C7_7  and  C8_8 
REMARK    7  A    between atoms: C8_8  and  O1_9 
ROOT
HETATM    1  C5  UNL     1     -16.446   0.388   5.404  1.00  0.00     0.000 C 
ENDROOT
BRANCH   1   2
HETATM    2  C4  UNL     1     -17.498   1.410   4.968  1.00  0.00     0.000 C 
BRANCH   2   3
HETATM    3  C3  UNL     1     -17.490   2.688   5.812  1.00  0.00    -0.000 C 
BRANCH   3   4
HETATM    4  C2  UNL     1     -16.694   3.832   5.181  1.00  0.00    -0.005 C 
HETATM    5  C1  UNL     1     -16.432   4.945   6.184  1.00  0.00     0.005 C 
ENDBRANCH   3   4
ENDBRANCH   2   3
ENDBRANCH   1   2
BRANCH   1   6
HETATM    6  C6  UNL     1     -15.579  -0.124   4.248  1.00  0.00     0.002 C 
BRANCH   6   7
HETATM    7  C7  UNL     1     -15.042   0.993   3.349  1.00  0.00     0.026 C 
BRANCH   7   8
HETATM    8  C8  UNL     1     -13.762   1.619   3.895  1.00  0.00     0.164 C 
BRANCH   8   9
HETATM    9  O1  UNL     1     -12.670   1.402   3.013  1.00  0.00    -0.401 OA
HETATM   10  H18 UNL     1     -13.019   0.983   2.208  1.00  0.00     0.209 HD
ENDBRANCH   8   9
ENDBRANCH   7   8
ENDBRANCH   6   7
ENDBRANCH   1   6
TORSDOF 7
ENDMDL
MODEL 7
REMARK VINA RESULT:      -3.6     12.076     14.418
REMARK  7 active torsions:
REMARK  status: ('A' for Active; 'I' for Inactive)
REMARK    1  A    between atoms: C2_2  and  C3_3 
REMARK    2  A    between atoms: C3_3  and  C4_4 
REMARK    3  A    between atoms: C4_4  and  C5_5 
REMARK    4  A    between atoms: C5_5  and  C6_6 
REMARK    5  A    between atoms: C6_6  and  C7_7 
REMARK    6  A    between atoms: C7_7  and  C8_8 
REMARK    7  A    between atoms: C8_8  and  O1_9 
ROOT
HETATM    1  C5  UNL     1     -18.058  12.463  -6.032  1.00  0.00     0.000 C 
ENDROOT
BRANCH   1   2
HETATM    2  C4  UNL     1     -16.844  13.370  -6.250  1.00  0.00     0.000 C 
BRANCH   2   3
HETATM    3  C3  UNL     1     -16.945  14.225  -7.517  1.00  0.00    -0.000 C 
BRANCH   3   4
HETATM    4  C2  UNL     1     -17.009  15.727  -7.236  1.00  0.00    -0.005 C 
HETATM    5  C1  UNL     1     -16.077  16.119  -6.099  1.00  0.00     0.005 C 
ENDBRANCH   3   4
ENDBRANCH   2   3
ENDBRANCH   1   2
BRANCH   1   6
HETATM    6  C6  UNL     1     -17.727  11.179  -5.263  1.00  0.00     0.002 C 
BRANCH   6   7
HETATM    7  C7  UNL     1     -16.235  11.021  -4.955  1.00  0.00     0.026 C 
BRANCH   7   8
HETATM    8  C8  UNL     1     -15.929  11.136  -3.465  1.00  0.00     0.164 C 
BRANCH   8   9
HETATM    9  O1  UNL     1     -16.609  10.133  -2.724  1.00  0.00    -0.401 OA
HETATM   10  H18 UNL     1     -16.065   9.919  -1.947  1.00  0.00     0.209 HD
ENDBRANCH   8   9
ENDBRANCH   7   8
ENDBRANCH   6   7
ENDBRANCH   1   6
TORSDOF 7
ENDMDL
MODEL 8
REMARK VINA RESULT:      -3.6     11.244     13.555
REMARK  7 active torsions:
REMARK  status: ('A' for Active; 'I' for Inactive)
REMARK    1  A    between atoms: C2_2  and  C3_3 
REMARK    2  A    between atoms: C3_3  and  C4_4 
REMARK    3  A    between atoms: C4_4  and  C5_5 
REMARK    4  A    between atoms: C5_5  and  C6_6 
REMARK    5  A    between atoms: C6_6  and  C7_7 
REMARK    6  A    between atoms: C7_7  and  C8_8 
REMARK    7  A    between atoms: C8_8  and  O1_9 
ROOT
HETATM    1  C5  UNL     1     -16.994  11.366  -6.274  1.00  0.00     0.000 C 
ENDROOT
BRANCH   1   2
HETATM    2  C4  UNL     1     -17.921  12.396  -6.926  1.00  0.00     0.000 C 
BRANCH   2   3
HETATM    3  C3  UNL     1     -17.559  13.843  -6.580  1.00  0.00    -0.000 C 
BRANCH   3   4
HETATM    4  C2  UNL     1     -16.074  14.046  -6.279  1.00  0.00    -0.005 C 
HETATM    5  C1  UNL     1     -15.868  14.691  -4.917  1.00  0.00     0.005 C 
ENDBRANCH   3   4
ENDBRANCH   2   3
ENDBRANCH   1   2
BRANCH   1   6
HETATM    6  C6  UNL     1     -17.477  10.898  -4.897  1.00  0.00     0.002 C 
BRANCH   6   7
HETATM    7  C7  UNL     1     -16.363  10.306  -4.030  1.00  0.00     0.026 C 
BRANCH   7   8
HETATM    8  C8  UNL     1     -15.655  11.361  -3.185  1.00  0.00     0.164 C 
BRANCH   8   9
HETATM    9  O1  UNL     1     -15.859  11.127  -1.799  1.00  0.00    -0.401 OA
HETATM   10  H18 UNL     1     -15.060  10.697  -1.451  1.00  0.00     0.209 HD
ENDBRANCH   8   9
ENDBRANCH   7   8
ENDBRANCH   6   7
ENDBRANCH   1   6
TORSDOF 7
ENDMDL
MODEL 9
REMARK VINA RESULT:      -3.6     11.086     13.488
REMARK  7 active torsions:
REMARK  status: ('A' for Active; 'I' for Inactive)
REMARK    1  A    between atoms: C2_2  and  C3_3 
REMARK    2  A    between atoms: C3_3  and  C4_4 
REMARK    3  A    between atoms: C4_4  and  C5_5 
REMARK    4  A    between atoms: C5_5  and  C6_6 
REMARK    5  A    between atoms: C6_6  and  C7_7 
REMARK    6  A    between atoms: C7_7  and  C8_8 
REMARK    7  A    between atoms: C8_8  and  O1_9 
ROOT
HETATM    1  C5  UNL     1     -16.723  13.297  -5.115  1.00  0.00     0.000 C 
ENDROOT
BRANCH   1   2
HETATM    2  C4  UNL     1     -15.413  14.045  -5.379  1.00  0.00     0.000 C 
BRANCH   2   3
HETATM    3  C3  UNL     1     -14.698  14.488  -4.099  1.00  0.00    -0.000 C 
BRANCH   3   4
HETATM    4  C2  UNL     1     -15.252  15.785  -3.508  1.00  0.00    -0.005 C 
HETATM    5  C1  UNL     1     -15.324  15.718  -1.990  1.00  0.00     0.005 C 
ENDBRANCH   3   4
ENDBRANCH   2   3
ENDBRANCH   1   2
BRANCH   1   6
HETATM    6  C6  UNL     1     -16.771  11.909  -5.763  1.00  0.00     0.002 C 
BRANCH   6   7
HETATM    7  C7  UNL     1     -17.217  10.803  -4.801  1.00  0.00     0.026 C 
BRANCH   7   8
HETATM    8  C8  UNL     1     -16.096  10.348  -3.871  1.00  0.00     0.164 C 
BRANCH   8   9
HETATM    9  O1  UNL     1     -16.543  10.283  -2.525  1.00  0.00    -0.401 OA
HETATM   10  H18 UNL     1     -16.006  10.904  -2.005  1.00  0.00     0.209 HD
ENDBRANCH   8   9
ENDBRANCH   7   8
ENDBRANCH   6   7
ENDBRANCH   1   6
TORSDOF 7
ENDMDL
