MODEL 1
REMARK VINA RESULT:      -3.7      0.000      0.000
REMARK  0 active torsions:
REMARK  status: ('A' for Active; 'I' for Inactive)
ROOT
HETATM    1  C1  UNL     1     -16.066   3.533   4.831  1.00  0.00     0.000 A 
HETATM    2  C2  UNL     1     -15.689   4.867   4.678  1.00  0.00     0.000 A 
HETATM    3  C3  UNL     1     -16.057   5.811   5.637  1.00  0.00     0.000 A 
HETATM    4  C4  UNL     1     -16.804   5.420   6.749  1.00  0.00     0.000 A 
HETATM    5  C5  UNL     1     -17.181   4.086   6.903  1.00  0.00     0.000 A 
HETATM    6  C6  UNL     1     -16.813   3.143   5.944  1.00  0.00     0.000 A 
ENDROOT
TORSDOF 0
ENDMDL
MODEL 2
REMARK VINA RESULT:      -3.7      0.049      1.973
REMARK  0 active torsions:
REMARK  status: ('A' for Active; 'I' for Inactive)
ROOT
HETATM    1  C1  UNL     1     -16.778   5.462   6.746  1.00  0.00     0.000 A 
HETATM    2  C2  UNL     1     -16.022   5.837   5.635  1.00  0.00     0.000 A 
HETATM    3  C3  UNL     1     -15.683   4.888   4.670  1.00  0.00     0.000 A 
HETATM    4  C4  UNL     1     -16.100   3.565   4.816  1.00  0.00     0.000 A 
HETATM    5  C5  UNL     1     -16.856   3.190   5.927  1.00  0.00     0.000 A 
HETATM    6  C6  UNL     1     -17.195   4.138   6.891  1.00  0.00     0.000 A 
ENDROOT
TORSDOF 0
ENDMDL
MODEL 3
REMARK VINA RESULT:      -3.7      0.091      2.790
REMARK  0 active torsions:
REMARK  status: ('A' for Active; 'I' for Inactive)
ROOT
HETATM    1  C1  UNL     1     -16.820   5.409   6.797  1.00  0.00     0.000 A 
HETATM    2  C2  UNL     1     -17.276   4.095   6.907  1.00  0.00     0.000 A 
HETATM    3  C3  UNL     1     -16.949   3.159   5.926  1.00  0.00     0.000 A 
HETATM    4  C4  UNL     1     -16.166   3.537   4.835  1.00  0.00     0.000 A 
HETATM    5  C5  UNL     1     -15.710   4.851   4.725  1.00  0.00     0.000 A 
HETATM    6  C6  UNL     1     -16.037   5.787   5.706  1.00  0.00     0.000 A 
ENDROOT
TORSDOF 0
ENDMDL
MODEL 4
REMARK VINA RESULT:      -3.7      0.297      1.991
REMARK  0 active torsions:
REMARK  status: ('A' for Active; 'I' for Inactive)
ROOT
HETATM    1  C1  UNL     1     -15.866   4.587   4.762  1.00  0.00     0.000 A 
HETATM    2  C2  UNL     1     -16.312   3.288   5.011  1.00  0.00     0.000 A 
HETATM    3  C3  UNL     1     -17.063   3.016   6.154  1.00  0.00     0.000 A 
HETATM    4  C4  UNL     1     -17.370   4.042   7.048  1.00  0.00     0.000 A 
HETATM    5  C5  UNL     1     -16.924   5.341   6.799  1.00  0.00     0.000 A 
HETATM    6  C6  UNL     1     -16.173   5.613   5.656  1.00  0.00     0.000 A 
ENDROOT
TORSDOF 0
ENDMDL
MODEL 5
REMARK VINA RESULT:      -3.4      1.803      3.254
REMARK  0 active torsions:
REMARK  status: ('A' for Active; 'I' for Inactive)
ROOT
HETATM    1  C1  UNL     1     -15.362   2.436   4.483  1.00  0.00     0.000 A 
HETATM    2  C2  UNL     1     -15.830   1.129   4.344  1.00  0.00     0.000 A 
HETATM    3  C3  UNL     1     -17.104   0.792   4.801  1.00  0.00     0.000 A 
HETATM    4  C4  UNL     1     -17.910   1.762   5.397  1.00  0.00     0.000 A 
HETATM    5  C5  UNL     1     -17.443   3.069   5.536  1.00  0.00     0.000 A 
HETATM    6  C6  UNL     1     -16.169   3.406   5.079  1.00  0.00     0.000 A 
ENDROOT
TORSDOF 0
ENDMDL
MODEL 6
REMARK VINA RESULT:      -3.3      1.298      2.707
REMARK  0 active torsions:
REMARK  status: ('A' for Active; 'I' for Inactive)
ROOT
HETATM    1  C1  UNL     1     -14.523   3.042   3.890  1.00  0.00     0.000 A 
HETATM    2  C2  UNL     1     -15.634   2.699   4.661  1.00  0.00     0.000 A 
HETATM    3  C3  UNL     1     -16.450   3.698   5.192  1.00  0.00     0.000 A 
HETATM    4  C4  UNL     1     -16.155   5.040   4.952  1.00  0.00     0.000 A 
HETATM    5  C5  UNL     1     -15.044   5.384   4.181  1.00  0.00     0.000 A 
HETATM    6  C6  UNL     1     -14.228   4.385   3.650  1.00  0.00     0.000 A 
ENDROOT
TORSDOF 0
ENDMDL
MODEL 7
REMARK VINA RESULT:      -3.2     12.736     13.924
REMARK  0 active torsions:
REMARK  status: ('A' for Active; 'I' for Inactive)
ROOT
HETATM    1  C1  UNL     1     -16.391  13.629  -5.368  1.00  0.00     0.000 A 
HETATM    2  C2  UNL     1     -15.965  12.575  -4.560  1.00  0.00     0.000 A 
HETATM    3  C3  UNL     1     -16.646  11.358  -4.585  1.00  0.00     0.000 A 
HETATM    4  C4  UNL     1     -17.753  11.195  -5.418  1.00  0.00     0.000 A 
HETATM    5  C5  UNL     1     -18.180  12.249  -6.226  1.00  0.00     0.000 A 
HETATM    6  C6  UNL     1     -17.499  13.467  -6.201  1.00  0.00     0.000 A 
ENDROOT
TORSDOF 0
ENDMDL
MODEL 8
REMARK VINA RESULT:      -3.2     12.787     13.929
REMARK  0 active torsions:
REMARK  status: ('A' for Active; 'I' for Inactive)
ROOT
HETATM    1  C1  UNL     1     -16.430  13.668  -5.434  1.00  0.00     0.000 A 
HETATM    2  C2  UNL     1     -17.538  13.475  -6.259  1.00  0.00     0.000 A 
HETATM    3  C3  UNL     1     -18.205  12.250  -6.255  1.00  0.00     0.000 A 
HETATM    4  C4  UNL     1     -17.763  11.217  -5.428  1.00  0.00     0.000 A 
HETATM    5  C5  UNL     1     -16.654  11.410  -4.604  1.00  0.00     0.000 A 
HETATM    6  C6  UNL     1     -15.987  12.635  -4.607  1.00  0.00     0.000 A 
ENDROOT
TORSDOF 0
ENDMDL
MODEL 9
REMARK VINA RESULT:      -3.2     12.754     13.803
REMARK  0 active torsions:
REMARK  status: ('A' for Active; 'I' for Inactive)
ROOT
HETATM    1  C1  UNL     1     -18.167  12.321  -6.292  1.00  0.00     0.000 A 
HETATM    2  C2  UNL     1     -17.450  13.513  -6.194  1.00  0.00     0.000 A 
HETATM    3  C3  UNL     1     -16.374  13.609  -5.311  1.00  0.00     0.000 A 
HETATM    4  C4  UNL     1     -16.015  12.512  -4.527  1.00  0.00     0.000 A 
HETATM    5  C5  UNL     1     -16.732  11.319  -4.626  1.00  0.00     0.000 A 
HETATM    6  C6  UNL     1     -17.808  11.224  -5.508  1.00  0.00     0.000 A 
ENDROOT
TORSDOF 0
ENDMDL
