MODEL 1
REMARK VINA RESULT:      -4.9      0.000      0.000
REMARK  2 active torsions:
REMARK  status: ('A' for Active; 'I' for Inactive)
REMARK       I    between atoms: C2_2  and  N1_4 
REMARK    1  A    between atoms: N1_4  and  C3_5 
REMARK    2  A    between atoms: C6_8  and  O2_11 
ROOT
HETATM    1  C3  UNL     1     -14.844   6.426   4.749  1.00  0.00     0.034 A 
HETATM    2  C4  UNL     1     -15.570   6.900   3.647  1.00  0.00     0.032 A 
HETATM    3  C5  UNL     1     -15.226   8.107   3.034  1.00  0.00     0.039 A 
HETATM    4  C6  UNL     1     -14.156   8.844   3.520  1.00  0.00     0.065 A 
HETATM    5  C7  UNL     1     -13.423   8.392   4.611  1.00  0.00     0.039 A 
HETATM    6  C8  UNL     1     -13.769   7.183   5.224  1.00  0.00     0.032 A 
ENDROOT
BRANCH   1   7
HETATM    7  N1  UNL     1     -15.254   5.200   5.310  1.00  0.00    -0.328 N 
HETATM    8  C2  UNL     1     -16.118   5.006   6.373  1.00  0.00     0.218 C 
HETATM    9  C1  UNL     1     -16.319   3.543   6.684  1.00  0.00     0.117 C 
HETATM   10  O1  UNL     1     -16.706   5.868   7.014  1.00  0.00    -0.274 OA
HETATM   11  H4  UNL     1     -14.874   4.369   4.876  1.00  0.00     0.169 HD
ENDBRANCH   1   7
BRANCH   4  12
HETATM   12  O2  UNL     1     -13.852  10.016   2.895  1.00  0.00    -0.361 OA
HETATM   13  H9  UNL     1     -12.971   9.933   2.494  1.00  0.00     0.217 HD
ENDBRANCH   4  12
TORSDOF 2
ENDMDL
MODEL 2
REMARK VINA RESULT:      -4.8      2.223      2.973
REMARK  2 active torsions:
REMARK  status: ('A' for Active; 'I' for Inactive)
REMARK       I    between atoms: C2_2  and  N1_4 
REMARK    1  A    between atoms: N1_4  and  C3_5 
REMARK    2  A    between atoms: C6_8  and  O2_11 
ROOT
HETATM    1  C3  UNL     1     -13.607   8.461   3.428  1.00  0.00     0.034 A 
HETATM    2  C4  UNL     1     -14.107   9.760   3.602  1.00  0.00     0.032 A 
HETATM    3  C5  UNL     1     -13.256  10.865   3.536  1.00  0.00     0.039 A 
HETATM    4  C6  UNL     1     -11.903  10.677   3.296  1.00  0.00     0.065 A 
HETATM    5  C7  UNL     1     -11.386   9.398   3.122  1.00  0.00     0.039 A 
HETATM    6  C8  UNL     1     -12.241   8.291   3.188  1.00  0.00     0.032 A 
ENDROOT
BRANCH   1   7
HETATM    7  N1  UNL     1     -14.531   7.399   3.509  1.00  0.00    -0.328 N 
HETATM    8  C2  UNL     1     -14.888   6.676   4.632  1.00  0.00     0.218 C 
HETATM    9  C1  UNL     1     -15.916   5.615   4.324  1.00  0.00     0.117 C 
HETATM   10  O1  UNL     1     -14.480   6.837   5.776  1.00  0.00    -0.274 OA
HETATM   11  H4  UNL     1     -14.988   7.148   2.642  1.00  0.00     0.169 HD
ENDBRANCH   1   7
BRANCH   4  12
HETATM   12  O2  UNL     1     -11.106  11.780   3.240  1.00  0.00    -0.361 OA
HETATM   13  H9  UNL     1     -10.243  11.519   2.876  1.00  0.00     0.217 HD
ENDBRANCH   4  12
TORSDOF 2
ENDMDL
MODEL 3
REMARK VINA RESULT:      -4.8      2.007      5.217
REMARK  2 active torsions:
REMARK  status: ('A' for Active; 'I' for Inactive)
REMARK       I    between atoms: C2_2  and  N1_4 
REMARK    1  A    between atoms: N1_4  and  C3_5 
REMARK    2  A    between atoms: C6_8  and  O2_11 
ROOT
HETATM    1  C3  UNL     1     -15.979   5.402   5.182  1.00  0.00     0.034 A 
HETATM    2  C4  UNL     1     -15.886   4.145   4.568  1.00  0.00     0.032 A 
HETATM    3  C5  UNL     1     -16.414   3.010   5.186  1.00  0.00     0.039 A 
HETATM    4  C6  UNL     1     -17.039   3.127   6.420  1.00  0.00     0.065 A 
HETATM    5  C7  UNL     1     -17.141   4.364   7.046  1.00  0.00     0.039 A 
HETATM    6  C8  UNL     1     -16.611   5.500   6.425  1.00  0.00     0.032 A 
ENDROOT
BRANCH   1   7
HETATM    7  N1  UNL     1     -15.421   6.498   4.492  1.00  0.00    -0.328 N 
HETATM    8  C2  UNL     1     -14.186   7.083   4.699  1.00  0.00     0.218 C 
HETATM    9  C1  UNL     1     -13.937   8.237   3.759  1.00  0.00     0.117 C 
HETATM   10  O1  UNL     1     -13.334   6.744   5.512  1.00  0.00    -0.274 OA
HETATM   11  H4  UNL     1     -15.993   6.891   3.756  1.00  0.00     0.169 HD
ENDBRANCH   1   7
BRANCH   4  12
HETATM   12  O2  UNL     1     -17.541   1.997   6.991  1.00  0.00    -0.361 OA
HETATM   13  H9  UNL     1     -16.808   1.379   7.149  1.00  0.00     0.217 HD
ENDBRANCH   4  12
TORSDOF 2
ENDMDL
MODEL 4
REMARK VINA RESULT:      -4.7     10.554     13.061
REMARK  2 active torsions:
REMARK  status: ('A' for Active; 'I' for Inactive)
REMARK       I    between atoms: C2_2  and  N1_4 
REMARK    1  A    between atoms: N1_4  and  C3_5 
REMARK    2  A    between atoms: C6_8  and  O2_11 
ROOT
HETATM    1  C3  UNL     1     -16.923  13.121  -5.528  1.00  0.00     0.034 A 
HETATM    2  C4  UNL     1     -15.881  13.074  -4.590  1.00  0.00     0.032 A 
HETATM    3  C5  UNL     1     -15.644  11.917  -3.846  1.00  0.00     0.039 A 
HETATM    4  C6  UNL     1     -16.446  10.800  -4.038  1.00  0.00     0.065 A 
HETATM    5  C7  UNL     1     -17.484  10.826  -4.963  1.00  0.00     0.039 A 
HETATM    6  C8  UNL     1     -17.720  11.987  -5.707  1.00  0.00     0.032 A 
ENDROOT
BRANCH   1   7
HETATM    7  N1  UNL     1     -17.096  14.326  -6.238  1.00  0.00    -0.328 N 
HETATM    8  C2  UNL     1     -16.530  14.681  -7.449  1.00  0.00     0.218 C 
HETATM    9  C1  UNL     1     -16.955  16.057  -7.897  1.00  0.00     0.117 C 
HETATM   10  O1  UNL     1     -15.784  14.000  -8.143  1.00  0.00    -0.274 OA
HETATM   11  H4  UNL     1     -17.714  15.004  -5.810  1.00  0.00     0.169 HD
ENDBRANCH   1   7
BRANCH   4  12
HETATM   12  O2  UNL     1     -16.183   9.691  -3.293  1.00  0.00    -0.361 OA
HETATM   13  H9  UNL     1     -15.288   9.773  -2.923  1.00  0.00     0.217 HD
ENDBRANCH   4  12
TORSDOF 2
ENDMDL
MODEL 5
REMARK VINA RESULT:      -4.7     10.565     12.976
REMARK  2 active torsions:
REMARK  status: ('A' for Active; 'I' for Inactive)
REMARK       I    between atoms: C2_2  and  N1_4 
REMARK    1  A    between atoms: N1_4  and  C3_5 
REMARK    2  A    between atoms: C6_8  and  O2_11 
ROOT
HETATM    1  C3  UNL     1     -16.626  13.015  -5.922  1.00  0.00     0.034 A 
HETATM    2  C4  UNL     1     -17.582  11.989  -5.929  1.00  0.00     0.032 A 
HETATM    3  C5  UNL     1     -17.551  10.981  -4.963  1.00  0.00     0.039 A 
HETATM    4  C6  UNL     1     -16.565  10.995  -3.986  1.00  0.00     0.065 A 
HETATM    5  C7  UNL     1     -15.608  12.003  -3.962  1.00  0.00     0.039 A 
HETATM    6  C8  UNL     1     -15.641  13.012  -4.931  1.00  0.00     0.032 A 
ENDROOT
BRANCH   1   7
HETATM    7  N1  UNL     1     -16.727  13.994  -6.932  1.00  0.00    -0.328 N 
HETATM    8  C2  UNL     1     -16.757  15.367  -6.773  1.00  0.00     0.218 C 
HETATM    9  C1  UNL     1     -16.868  16.091  -8.093  1.00  0.00     0.117 C 
HETATM   10  O1  UNL     1     -16.681  15.992  -5.722  1.00  0.00    -0.274 OA
HETATM   11  H4  UNL     1     -16.774  13.644  -7.880  1.00  0.00     0.169 HD
ENDBRANCH   1   7
BRANCH   4  12
HETATM   12  O2  UNL     1     -16.569   9.995  -3.062  1.00  0.00    -0.361 OA
HETATM   13  H9  UNL     1     -15.954  10.232  -2.348  1.00  0.00     0.217 HD
ENDBRANCH   4  12
TORSDOF 2
ENDMDL
MODEL 6
REMARK VINA RESULT:      -4.5      2.971      6.291
REMARK  2 active torsions:
REMARK  status: ('A' for Active; 'I' for Inactive)
REMARK       I    between atoms: C2_2  and  N1_4 
REMARK    1  A    between atoms: N1_4  and  C3_5 
REMARK    2  A    between atoms: C6_8  and  O2_11 
ROOT
HETATM    1  C3  UNL     1     -16.025   3.034   4.838  1.00  0.00     0.034 A 
HETATM    2  C4  UNL     1     -15.050   2.044   4.645  1.00  0.00     0.032 A 
HETATM    3  C5  UNL     1     -15.295   0.721   5.016  1.00  0.00     0.039 A 
HETATM    4  C6  UNL     1     -16.517   0.380   5.580  1.00  0.00     0.065 A 
HETATM    5  C7  UNL     1     -17.496   1.346   5.781  1.00  0.00     0.039 A 
HETATM    6  C8  UNL     1     -17.248   2.672   5.408  1.00  0.00     0.032 A 
ENDROOT
BRANCH   1   7
HETATM    7  N1  UNL     1     -15.699   4.345   4.437  1.00  0.00    -0.328 N 
HETATM    8  C2  UNL     1     -15.762   5.499   5.196  1.00  0.00     0.218 C 
HETATM    9  C1  UNL     1     -15.328   6.717   4.419  1.00  0.00     0.117 C 
HETATM   10  O1  UNL     1     -16.096   5.594   6.371  1.00  0.00    -0.274 OA
HETATM   11  H4  UNL     1     -15.374   4.445   3.484  1.00  0.00     0.169 HD
ENDBRANCH   1   7
BRANCH   4  12
HETATM   12  O2  UNL     1     -16.717  -0.921   5.929  1.00  0.00    -0.361 OA
HETATM   13  H9  UNL     1     -15.860  -1.379   5.919  1.00  0.00     0.217 HD
ENDBRANCH   4  12
TORSDOF 2
ENDMDL
MODEL 7
REMARK VINA RESULT:      -4.4      2.515      5.200
REMARK  2 active torsions:
REMARK  status: ('A' for Active; 'I' for Inactive)
REMARK       I    between atoms: C2_2  and  N1_4 
REMARK    1  A    between atoms: N1_4  and  C3_5 
REMARK    2  A    between atoms: C6_8  and  O2_11 
ROOT
HETATM    1  C3  UNL     1     -13.707   8.690   4.007  1.00  0.00     0.034 A 
HETATM    2  C4  UNL     1     -14.720   8.376   3.088  1.00  0.00     0.032 A 
HETATM    3  C5  UNL     1     -15.541   7.265   3.286  1.00  0.00     0.039 A 
HETATM    4  C6  UNL     1     -15.355   6.463   4.403  1.00  0.00     0.065 A 
HETATM    5  C7  UNL     1     -14.357   6.756   5.325  1.00  0.00     0.039 A 
HETATM    6  C8  UNL     1     -13.534   7.870   5.125  1.00  0.00     0.032 A 
ENDROOT
BRANCH   1   7
HETATM    7  N1  UNL     1     -12.922   9.829   3.734  1.00  0.00    -0.328 N 
HETATM    8  C2  UNL     1     -11.715   9.879   3.060  1.00  0.00     0.218 C 
HETATM    9  C1  UNL     1     -11.175  11.284   2.962  1.00  0.00     0.117 C 
HETATM   10  O1  UNL     1     -11.112   8.940   2.554  1.00  0.00    -0.274 OA
HETATM   11  H4  UNL     1     -13.294  10.709   4.067  1.00  0.00     0.169 HD
ENDBRANCH   1   7
BRANCH   4  12
HETATM   12  O2  UNL     1     -16.176   5.388   4.561  1.00  0.00    -0.361 OA
HETATM   13  H9  UNL     1     -16.765   5.557   5.316  1.00  0.00     0.217 HD
ENDBRANCH   4  12
TORSDOF 2
ENDMDL
MODEL 8
REMARK VINA RESULT:      -4.3      3.944      5.056
REMARK  2 active torsions:
REMARK  status: ('A' for Active; 'I' for Inactive)
REMARK       I    between atoms: C2_2  and  N1_4 
REMARK    1  A    between atoms: N1_4  and  C3_5 
REMARK    2  A    between atoms: C6_8  and  O2_11 
ROOT
HETATM    1  C3  UNL     1     -15.537   2.247   4.493  1.00  0.00     0.034 A 
HETATM    2  C4  UNL     1     -16.568   2.852   5.226  1.00  0.00     0.032 A 
HETATM    3  C5  UNL     1     -16.652   4.243   5.322  1.00  0.00     0.039 A 
HETATM    4  C6  UNL     1     -15.706   5.034   4.685  1.00  0.00     0.065 A 
HETATM    5  C7  UNL     1     -14.676   4.454   3.954  1.00  0.00     0.039 A 
HETATM    6  C8  UNL     1     -14.594   3.060   3.859  1.00  0.00     0.032 A 
ENDROOT
BRANCH   1   7
HETATM    7  N1  UNL     1     -15.523   0.838   4.445  1.00  0.00    -0.328 N 
HETATM    8  C2  UNL     1     -14.939   0.033   3.484  1.00  0.00     0.218 C 
HETATM    9  C1  UNL     1     -15.132  -1.434   3.776  1.00  0.00     0.117 C 
HETATM   10  O1  UNL     1     -14.305   0.397   2.501  1.00  0.00    -0.274 OA
HETATM   11  H4  UNL     1     -15.990   0.368   5.210  1.00  0.00     0.169 HD
ENDBRANCH   1   7
BRANCH   4  12
HETATM   12  O2  UNL     1     -15.822   6.386   4.803  1.00  0.00    -0.361 OA
HETATM   13  H9  UNL     1     -14.994   6.794   4.500  1.00  0.00     0.217 HD
ENDBRANCH   4  12
TORSDOF 2
ENDMDL
MODEL 9
REMARK VINA RESULT:      -4.3      3.772      5.527
REMARK  2 active torsions:
REMARK  status: ('A' for Active; 'I' for Inactive)
REMARK       I    between atoms: C2_2  and  N1_4 
REMARK    1  A    between atoms: N1_4  and  C3_5 
REMARK    2  A    between atoms: C6_8  and  O2_11 
ROOT
HETATM    1  C3  UNL     1     -16.409   2.110   5.218  1.00  0.00     0.034 A 
HETATM    2  C4  UNL     1     -15.803   3.249   4.670  1.00  0.00     0.032 A 
HETATM    3  C5  UNL     1     -15.919   4.490   5.300  1.00  0.00     0.039 A 
HETATM    4  C6  UNL     1     -16.639   4.596   6.482  1.00  0.00     0.065 A 
HETATM    5  C7  UNL     1     -17.247   3.478   7.042  1.00  0.00     0.039 A 
HETATM    6  C8  UNL     1     -17.130   2.236   6.409  1.00  0.00     0.032 A 
ENDROOT
BRANCH   1   7
HETATM    7  N1  UNL     1     -16.245   0.895   4.520  1.00  0.00    -0.328 N 
HETATM    8  C2  UNL     1     -15.176   0.020   4.590  1.00  0.00     0.218 C 
HETATM    9  C1  UNL     1     -15.363  -1.180   3.696  1.00  0.00     0.117 C 
HETATM   10  O1  UNL     1     -14.177   0.129   5.291  1.00  0.00    -0.274 OA
HETATM   11  H4  UNL     1     -17.005   0.637   3.904  1.00  0.00     0.169 HD
ENDBRANCH   1   7
BRANCH   4  12
HETATM   12  O2  UNL     1     -16.728   5.823   7.066  1.00  0.00    -0.361 OA
HETATM   13  H9  UNL     1     -17.667   6.028   7.210  1.00  0.00     0.217 HD
ENDBRANCH   4  12
TORSDOF 2
ENDMDL
