MODEL 1
REMARK VINA RESULT:      -6.5      0.000      0.000
REMARK  5 active torsions:
REMARK  status: ('A' for Active; 'I' for Inactive)
REMARK    1  A    between atoms: C2_2  and  C4_4 
REMARK    2  A    between atoms: C4_4  and  C5_5 
REMARK    3  A    between atoms: C8_8  and  C11_11 
REMARK    4  A    between atoms: C11_11  and  C13_13 
REMARK    5  A    between atoms: C13_13  and  O2_15 
ROOT
HETATM    1  C5  UNL     1     -16.962   3.407   6.187  1.00  0.00    -0.058 A 
HETATM    2  C6  UNL     1     -16.987   4.719   6.670  1.00  0.00     0.007 A 
HETATM    3  C7  UNL     1     -16.256   5.726   6.033  1.00  0.00     0.008 A 
HETATM    4  C8  UNL     1     -15.481   5.444   4.899  1.00  0.00    -0.044 A 
HETATM    5  C9  UNL     1     -15.455   4.125   4.421  1.00  0.00     0.008 A 
HETATM    6  C10 UNL     1     -16.188   3.118   5.058  1.00  0.00     0.007 A 
ENDROOT
BRANCH   4   7
HETATM    7  C11 UNL     1     -14.686   6.524   4.182  1.00  0.00     0.112 C 
HETATM    8  C12 UNL     1     -15.598   7.574   3.546  1.00  0.00     0.026 C 
BRANCH   7   9
HETATM    9  C13 UNL     1     -13.668   7.216   5.072  1.00  0.00     0.148 C 
HETATM   10  O1  UNL     1     -13.642   8.383   5.426  1.00  0.00    -0.649 OA
BRANCH   9  11
HETATM   11  O2  UNL     1     -12.668   6.385   5.445  1.00  0.00    -0.776 OA
HETATM   12  H18 UNL     1     -13.140   5.603   5.802  1.00  0.00     0.167 HD
ENDBRANCH   9  11
ENDBRANCH   7   9
ENDBRANCH   4   7
BRANCH   1  13
HETATM   13  C4  UNL     1     -17.754   2.319   6.872  1.00  0.00     0.042 C 
BRANCH  13  14
HETATM   14  C2  UNL     1     -17.349   2.085   8.341  1.00  0.00    -0.019 C 
HETATM   15  C1  UNL     1     -18.601   1.869   9.195  1.00  0.00     0.010 C 
HETATM   16  C3  UNL     1     -16.407   0.888   8.493  1.00  0.00     0.010 C 
ENDBRANCH  13  14
ENDBRANCH   1  13
TORSDOF 5
ENDMDL
MODEL 2
REMARK VINA RESULT:      -6.3      1.415      2.187
REMARK  5 active torsions:
REMARK  status: ('A' for Active; 'I' for Inactive)
REMARK    1  A    between atoms: C2_2  and  C4_4 
REMARK    2  A    between atoms: C4_4  and  C5_5 
REMARK    3  A    between atoms: C8_8  and  C11_11 
REMARK    4  A    between atoms: C11_11  and  C13_13 
REMARK    5  A    between atoms: C13_13  and  O2_15 
ROOT
HETATM    1  C5  UNL     1     -15.581   3.728   4.648  1.00  0.00    -0.058 A 
HETATM    2  C6  UNL     1     -16.236   4.921   4.971  1.00  0.00     0.007 A 
HETATM    3  C7  UNL     1     -15.731   6.149   4.535  1.00  0.00     0.008 A 
HETATM    4  C8  UNL     1     -14.558   6.215   3.770  1.00  0.00    -0.044 A 
HETATM    5  C9  UNL     1     -13.903   5.016   3.453  1.00  0.00     0.008 A 
HETATM    6  C10 UNL     1     -14.408   3.787   3.887  1.00  0.00     0.007 A 
ENDROOT
BRANCH   4   7
HETATM    7  C11 UNL     1     -13.996   7.538   3.276  1.00  0.00     0.112 C 
HETATM    8  C12 UNL     1     -15.095   8.463   2.751  1.00  0.00     0.026 C 
BRANCH   7   9
HETATM    9  C13 UNL     1     -13.178   8.276   4.323  1.00  0.00     0.148 C 
HETATM   10  O1  UNL     1     -13.520   8.630   5.438  1.00  0.00    -0.649 OA
BRANCH   9  11
HETATM   11  O2  UNL     1     -11.940   8.586   3.877  1.00  0.00    -0.776 OA
HETATM   12  H18 UNL     1     -11.552   9.103   4.615  1.00  0.00     0.167 HD
ENDBRANCH   9  11
ENDBRANCH   7   9
ENDBRANCH   4   7
BRANCH   1  13
HETATM   13  C4  UNL     1     -16.127   2.400   5.114  1.00  0.00     0.042 C 
BRANCH  13  14
HETATM   14  C2  UNL     1     -17.559   2.479   5.679  1.00  0.00    -0.019 C 
HETATM   15  C1  UNL     1     -18.414   1.357   5.082  1.00  0.00     0.010 C 
HETATM   16  C3  UNL     1     -17.579   2.386   7.206  1.00  0.00     0.010 C 
ENDBRANCH  13  14
ENDBRANCH   1  13
TORSDOF 5
ENDMDL
MODEL 3
REMARK VINA RESULT:      -6.2      2.019      3.240
REMARK  5 active torsions:
REMARK  status: ('A' for Active; 'I' for Inactive)
REMARK    1  A    between atoms: C2_2  and  C4_4 
REMARK    2  A    between atoms: C4_4  and  C5_5 
REMARK    3  A    between atoms: C8_8  and  C11_11 
REMARK    4  A    between atoms: C11_11  and  C13_13 
REMARK    5  A    between atoms: C13_13  and  O2_15 
ROOT
HETATM    1  C5  UNL     1     -15.274   4.289   4.393  1.00  0.00    -0.058 A 
HETATM    2  C6  UNL     1     -14.077   4.280   3.668  1.00  0.00     0.007 A 
HETATM    3  C7  UNL     1     -13.489   5.477   3.251  1.00  0.00     0.008 A 
HETATM    4  C8  UNL     1     -14.084   6.712   3.546  1.00  0.00    -0.044 A 
HETATM    5  C9  UNL     1     -15.286   6.716   4.269  1.00  0.00     0.008 A 
HETATM    6  C10 UNL     1     -15.874   5.518   4.688  1.00  0.00     0.007 A 
ENDROOT
BRANCH   4   7
HETATM    7  C11 UNL     1     -13.458   8.028   3.113  1.00  0.00     0.112 C 
HETATM    8  C12 UNL     1     -12.629   7.870   1.837  1.00  0.00     0.026 C 
BRANCH   7   9
HETATM    9  C13 UNL     1     -14.470   9.144   2.919  1.00  0.00     0.148 C 
HETATM   10  O1  UNL     1     -14.557  10.199   3.525  1.00  0.00    -0.649 OA
BRANCH   9  11
HETATM   11  O2  UNL     1     -15.386   8.842   1.972  1.00  0.00    -0.776 OA
HETATM   12  H18 UNL     1     -16.029   8.273   2.446  1.00  0.00     0.167 HD
ENDBRANCH   9  11
ENDBRANCH   7   9
ENDBRANCH   4   7
BRANCH   1  13
HETATM   13  C4  UNL     1     -15.909   2.997   4.847  1.00  0.00     0.042 C 
BRANCH  13  14
HETATM   14  C2  UNL     1     -17.244   3.188   5.594  1.00  0.00    -0.019 C 
HETATM   15  C1  UNL     1     -18.169   2.001   5.313  1.00  0.00     0.010 C 
HETATM   16  C3  UNL     1     -17.040   3.337   7.104  1.00  0.00     0.010 C 
ENDBRANCH  13  14
ENDBRANCH   1  13
TORSDOF 5
ENDMDL
MODEL 4
REMARK VINA RESULT:      -6.0      3.108      6.151
REMARK  5 active torsions:
REMARK  status: ('A' for Active; 'I' for Inactive)
REMARK    1  A    between atoms: C2_2  and  C4_4 
REMARK    2  A    between atoms: C4_4  and  C5_5 
REMARK    3  A    between atoms: C8_8  and  C11_11 
REMARK    4  A    between atoms: C11_11  and  C13_13 
REMARK    5  A    between atoms: C13_13  and  O2_15 
ROOT
HETATM    1  C5  UNL     1     -15.509   5.796   4.852  1.00  0.00    -0.058 A 
HETATM    2  C6  UNL     1     -16.205   5.870   6.063  1.00  0.00     0.007 A 
HETATM    3  C7  UNL     1     -16.681   4.710   6.681  1.00  0.00     0.008 A 
HETATM    4  C8  UNL     1     -16.475   3.450   6.102  1.00  0.00    -0.044 A 
HETATM    5  C9  UNL     1     -15.780   3.381   4.886  1.00  0.00     0.008 A 
HETATM    6  C10 UNL     1     -15.302   4.541   4.268  1.00  0.00     0.007 A 
ENDROOT
BRANCH   4   7
HETATM    7  C11 UNL     1     -16.974   2.173   6.762  1.00  0.00     0.112 C 
HETATM    8  C12 UNL     1     -17.939   2.467   7.912  1.00  0.00     0.026 C 
BRANCH   7   9
HETATM    9  C13 UNL     1     -17.631   1.208   5.790  1.00  0.00     0.148 C 
HETATM   10  O1  UNL     1     -18.642   1.373   5.127  1.00  0.00    -0.649 OA
BRANCH   9  11
HETATM   11  O2  UNL     1     -16.987   0.021   5.737  1.00  0.00    -0.776 OA
HETATM   12  H18 UNL     1     -16.249   0.186   5.111  1.00  0.00     0.167 HD
ENDBRANCH   9  11
ENDBRANCH   7   9
ENDBRANCH   4   7
BRANCH   1  13
HETATM   13  C4  UNL     1     -14.990   7.047   4.185  1.00  0.00     0.042 C 
BRANCH  13  14
HETATM   14  C2  UNL     1     -13.557   7.429   4.606  1.00  0.00    -0.019 C 
HETATM   15  C1  UNL     1     -12.587   7.151   3.455  1.00  0.00     0.010 C 
HETATM   16  C3  UNL     1     -13.454   8.897   5.024  1.00  0.00     0.010 C 
ENDBRANCH  13  14
ENDBRANCH   1  13
TORSDOF 5
ENDMDL
MODEL 5
REMARK VINA RESULT:      -5.9      1.740      2.735
REMARK  5 active torsions:
REMARK  status: ('A' for Active; 'I' for Inactive)
REMARK    1  A    between atoms: C2_2  and  C4_4 
REMARK    2  A    between atoms: C4_4  and  C5_5 
REMARK    3  A    between atoms: C8_8  and  C11_11 
REMARK    4  A    between atoms: C11_11  and  C13_13 
REMARK    5  A    between atoms: C13_13  and  O2_15 
ROOT
HETATM    1  C5  UNL     1     -15.677   3.571   4.669  1.00  0.00    -0.058 A 
HETATM    2  C6  UNL     1     -14.516   3.644   3.893  1.00  0.00     0.007 A 
HETATM    3  C7  UNL     1     -13.957   4.883   3.565  1.00  0.00     0.008 A 
HETATM    4  C8  UNL     1     -14.547   6.077   4.002  1.00  0.00    -0.044 A 
HETATM    5  C9  UNL     1     -15.713   5.998   4.777  1.00  0.00     0.008 A 
HETATM    6  C10 UNL     1     -16.272   4.760   5.107  1.00  0.00     0.007 A 
ENDROOT
BRANCH   4   7
HETATM    7  C11 UNL     1     -13.951   7.435   3.667  1.00  0.00     0.112 C 
HETATM    8  C12 UNL     1     -13.597   8.228   4.926  1.00  0.00     0.026 C 
BRANCH   7   9
HETATM    9  C13 UNL     1     -12.731   7.354   2.766  1.00  0.00     0.148 C 
HETATM   10  O1  UNL     1     -12.693   7.207   1.555  1.00  0.00    -0.649 OA
BRANCH   9  11
HETATM   11  O2  UNL     1     -11.575   7.414   3.465  1.00  0.00    -0.776 OA
HETATM   12  H18 UNL     1     -10.980   7.932   2.882  1.00  0.00     0.167 HD
ENDBRANCH   9  11
ENDBRANCH   7   9
ENDBRANCH   4   7
BRANCH   1  13
HETATM   13  C4  UNL     1     -16.280   2.235   5.028  1.00  0.00     0.042 C 
BRANCH  13  14
HETATM   14  C2  UNL     1     -17.679   2.334   5.669  1.00  0.00    -0.019 C 
HETATM   15  C1  UNL     1     -18.595   1.257   5.084  1.00  0.00     0.010 C 
HETATM   16  C3  UNL     1     -17.623   2.193   7.192  1.00  0.00     0.010 C 
ENDBRANCH  13  14
ENDBRANCH   1  13
TORSDOF 5
ENDMDL
MODEL 6
REMARK VINA RESULT:      -5.9      2.764      6.056
REMARK  5 active torsions:
REMARK  status: ('A' for Active; 'I' for Inactive)
REMARK    1  A    between atoms: C2_2  and  C4_4 
REMARK    2  A    between atoms: C4_4  and  C5_5 
REMARK    3  A    between atoms: C8_8  and  C11_11 
REMARK    4  A    between atoms: C11_11  and  C13_13 
REMARK    5  A    between atoms: C13_13  and  O2_15 
ROOT
HETATM    1  C5  UNL     1     -15.095   6.003   5.017  1.00  0.00    -0.058 A 
HETATM    2  C6  UNL     1     -15.902   6.154   6.150  1.00  0.00     0.007 A 
HETATM    3  C7  UNL     1     -16.728   5.111   6.578  1.00  0.00     0.008 A 
HETATM    4  C8  UNL     1     -16.769   3.894   5.882  1.00  0.00    -0.044 A 
HETATM    5  C9  UNL     1     -15.961   3.749   4.746  1.00  0.00     0.008 A 
HETATM    6  C10 UNL     1     -15.133   4.792   4.318  1.00  0.00     0.007 A 
ENDROOT
BRANCH   4   7
HETATM    7  C11 UNL     1     -17.651   2.741   6.335  1.00  0.00     0.112 C 
HETATM    8  C12 UNL     1     -17.450   1.496   5.470  1.00  0.00     0.026 C 
BRANCH   7   9
HETATM    9  C13 UNL     1     -17.462   2.372   7.796  1.00  0.00     0.148 C 
HETATM   10  O1  UNL     1     -18.283   2.404   8.697  1.00  0.00    -0.649 OA
BRANCH   9  11
HETATM   11  O2  UNL     1     -16.186   2.018   8.071  1.00  0.00    -0.776 OA
HETATM   12  H18 UNL     1     -16.191   1.875   9.042  1.00  0.00     0.167 HD
ENDBRANCH   9  11
ENDBRANCH   7   9
ENDBRANCH   4   7
BRANCH   1  13
HETATM   13  C4  UNL     1     -14.199   7.127   4.555  1.00  0.00     0.042 C 
BRANCH  13  14
HETATM   14  C2  UNL     1     -14.275   7.402   3.040  1.00  0.00    -0.019 C 
HETATM   15  C1  UNL     1     -14.850   8.800   2.796  1.00  0.00     0.010 C 
HETATM   16  C3  UNL     1     -12.907   7.282   2.366  1.00  0.00     0.010 C 
ENDBRANCH  13  14
ENDBRANCH   1  13
TORSDOF 5
ENDMDL
MODEL 7
REMARK VINA RESULT:      -5.6      3.242      6.217
REMARK  5 active torsions:
REMARK  status: ('A' for Active; 'I' for Inactive)
REMARK    1  A    between atoms: C2_2  and  C4_4 
REMARK    2  A    between atoms: C4_4  and  C5_5 
REMARK    3  A    between atoms: C8_8  and  C11_11 
REMARK    4  A    between atoms: C11_11  and  C13_13 
REMARK    5  A    between atoms: C13_13  and  O2_15 
ROOT
HETATM    1  C5  UNL     1     -15.203   5.340   4.530  1.00  0.00    -0.058 A 
HETATM    2  C6  UNL     1     -16.323   4.816   5.184  1.00  0.00     0.007 A 
HETATM    3  C7  UNL     1     -16.569   3.440   5.180  1.00  0.00     0.008 A 
HETATM    4  C8  UNL     1     -15.702   2.556   4.522  1.00  0.00    -0.044 A 
HETATM    5  C9  UNL     1     -14.583   3.087   3.866  1.00  0.00     0.008 A 
HETATM    6  C10 UNL     1     -14.335   4.463   3.870  1.00  0.00     0.007 A 
ENDROOT
BRANCH   4   7
HETATM    7  C11 UNL     1     -15.943   1.054   4.514  1.00  0.00     0.112 C 
HETATM    8  C12 UNL     1     -15.041   0.339   3.507  1.00  0.00     0.026 C 
BRANCH   7   9
HETATM    9  C13 UNL     1     -15.781   0.409   5.879  1.00  0.00     0.148 C 
HETATM   10  O1  UNL     1     -15.162   0.826   6.844  1.00  0.00    -0.649 OA
BRANCH   9  11
HETATM   11  O2  UNL     1     -16.387  -0.798   5.948  1.00  0.00    -0.776 OA
HETATM   12  H18 UNL     1     -16.036  -1.184   6.779  1.00  0.00     0.167 HD
ENDBRANCH   9  11
ENDBRANCH   7   9
ENDBRANCH   4   7
BRANCH   1  13
HETATM   13  C4  UNL     1     -14.934   6.826   4.536  1.00  0.00     0.042 C 
BRANCH  13  14
HETATM   14  C2  UNL     1     -14.168   7.325   3.295  1.00  0.00    -0.019 C 
HETATM   15  C1  UNL     1     -14.951   8.456   2.624  1.00  0.00     0.010 C 
HETATM   16  C3  UNL     1     -12.759   7.809   3.646  1.00  0.00     0.010 C 
ENDBRANCH  13  14
ENDBRANCH   1  13
TORSDOF 5
ENDMDL
MODEL 8
REMARK VINA RESULT:      -5.0     11.451     15.608
REMARK  5 active torsions:
REMARK  status: ('A' for Active; 'I' for Inactive)
REMARK    1  A    between atoms: C2_2  and  C4_4 
REMARK    2  A    between atoms: C4_4  and  C5_5 
REMARK    3  A    between atoms: C8_8  and  C11_11 
REMARK    4  A    between atoms: C11_11  and  C13_13 
REMARK    5  A    between atoms: C13_13  and  O2_15 
ROOT
HETATM    1  C5  UNL     1     -16.833  14.644  -6.425  1.00  0.00    -0.058 A 
HETATM    2  C6  UNL     1     -16.074  14.738  -5.254  1.00  0.00     0.007 A 
HETATM    3  C7  UNL     1     -15.789  13.598  -4.497  1.00  0.00     0.008 A 
HETATM    4  C8  UNL     1     -16.257  12.337  -4.893  1.00  0.00    -0.044 A 
HETATM    5  C9  UNL     1     -17.021  12.248  -6.065  1.00  0.00     0.008 A 
HETATM    6  C10 UNL     1     -17.305  13.388  -6.823  1.00  0.00     0.007 A 
ENDROOT
BRANCH   4   7
HETATM    7  C11 UNL     1     -15.950  11.081  -4.092  1.00  0.00     0.112 C 
HETATM    8  C12 UNL     1     -15.121  10.081  -4.899  1.00  0.00     0.026 C 
BRANCH   7   9
HETATM    9  C13 UNL     1     -15.254  11.361  -2.772  1.00  0.00     0.148 C 
HETATM   10  O1  UNL     1     -14.086  11.657  -2.580  1.00  0.00    -0.649 OA
BRANCH   9  11
HETATM   11  O2  UNL     1     -16.081  11.199  -1.714  1.00  0.00    -0.776 OA
HETATM   12  H18 UNL     1     -16.590  12.037  -1.690  1.00  0.00     0.167 HD
ENDBRANCH   9  11
ENDBRANCH   7   9
ENDBRANCH   4   7
BRANCH   1  13
HETATM   13  C4  UNL     1     -17.139  15.874  -7.245  1.00  0.00     0.042 C 
BRANCH  13  14
HETATM   14  C2  UNL     1     -16.388  15.927  -8.591  1.00  0.00    -0.019 C 
HETATM   15  C1  UNL     1     -17.155  16.813  -9.577  1.00  0.00     0.010 C 
HETATM   16  C3  UNL     1     -14.959  16.451  -8.431  1.00  0.00     0.010 C 
ENDBRANCH  13  14
ENDBRANCH   1  13
TORSDOF 5
ENDMDL
MODEL 9
REMARK VINA RESULT:      -5.0     10.996     13.203
REMARK  5 active torsions:
REMARK  status: ('A' for Active; 'I' for Inactive)
REMARK    1  A    between atoms: C2_2  and  C4_4 
REMARK    2  A    between atoms: C4_4  and  C5_5 
REMARK    3  A    between atoms: C8_8  and  C11_11 
REMARK    4  A    between atoms: C11_11  and  C13_13 
REMARK    5  A    between atoms: C13_13  and  O2_15 
ROOT
HETATM    1  C5  UNL     1     -14.800  12.439  -2.699  1.00  0.00    -0.058 A 
HETATM    2  C6  UNL     1     -14.993  13.410  -3.687  1.00  0.00     0.007 A 
HETATM    3  C7  UNL     1     -15.833  13.160  -4.776  1.00  0.00     0.008 A 
HETATM    4  C8  UNL     1     -16.498  11.931  -4.904  1.00  0.00    -0.044 A 
HETATM    5  C9  UNL     1     -16.297  10.960  -3.913  1.00  0.00     0.008 A 
HETATM    6  C10 UNL     1     -15.458  11.211  -2.823  1.00  0.00     0.007 A 
ENDROOT
BRANCH   4   7
HETATM    7  C11 UNL     1     -17.425  11.640  -6.073  1.00  0.00     0.112 C 
HETATM    8  C12 UNL     1     -18.501  12.715  -6.228  1.00  0.00     0.026 C 
BRANCH   7   9
HETATM    9  C13 UNL     1     -16.695  11.466  -7.394  1.00  0.00     0.148 C 
HETATM   10  O1  UNL     1     -16.727  12.189  -8.376  1.00  0.00    -0.649 OA
BRANCH   9  11
HETATM   11  O2  UNL     1     -15.976  10.322  -7.433  1.00  0.00    -0.776 OA
HETATM   12  H18 UNL     1     -16.132   9.983  -8.340  1.00  0.00     0.167 HD
ENDBRANCH   9  11
ENDBRANCH   7   9
ENDBRANCH   4   7
BRANCH   1  13
HETATM   13  C4  UNL     1     -13.896  12.710  -1.520  1.00  0.00     0.042 C 
BRANCH  13  14
HETATM   14  C2  UNL     1     -13.055  11.492  -1.088  1.00  0.00    -0.019 C 
HETATM   15  C1  UNL     1     -11.910  11.275  -2.081  1.00  0.00     0.010 C 
HETATM   16  C3  UNL     1     -12.488  11.658   0.324  1.00  0.00     0.010 C 
ENDBRANCH  13  14
ENDBRANCH   1  13
TORSDOF 5
ENDMDL
