MODEL 1
REMARK VINA RESULT:      -5.4      0.000      0.000
REMARK  0 active torsions:
REMARK  status: ('A' for Active; 'I' for Inactive)
ROOT
HETATM    1  C1  UNL     1     -15.648   6.166   5.620  1.00  0.00     0.001 A 
HETATM    2  C2  UNL     1     -15.129   5.522   4.500  1.00  0.00     0.001 A 
HETATM    3  C3  UNL     1     -15.399   4.168   4.287  1.00  0.00     0.012 A 
HETATM    4  C4  UNL     1     -16.191   3.443   5.192  1.00  0.00    -0.026 A 
HETATM    5  C5  UNL     1     -16.471   2.081   4.991  1.00  0.00     0.012 A 
HETATM    6  C6  UNL     1     -17.260   1.374   5.901  1.00  0.00     0.001 A 
HETATM    7  C7  UNL     1     -17.778   2.018   7.021  1.00  0.00     0.001 A 
HETATM    8  C8  UNL     1     -17.509   3.371   7.234  1.00  0.00     0.012 A 
HETATM    9  C9  UNL     1     -16.716   4.097   6.329  1.00  0.00    -0.026 A 
HETATM   10  C10 UNL     1     -16.436   5.458   6.529  1.00  0.00     0.012 A 
ENDROOT
TORSDOF 0
ENDMDL
MODEL 2
REMARK VINA RESULT:      -5.4      0.056      2.070
REMARK  0 active torsions:
REMARK  status: ('A' for Active; 'I' for Inactive)
ROOT
HETATM    1  C1  UNL     1     -15.195   5.504   4.504  1.00  0.00     0.001 A 
HETATM    2  C2  UNL     1     -15.704   6.147   5.629  1.00  0.00     0.001 A 
HETATM    3  C3  UNL     1     -16.473   5.435   6.551  1.00  0.00     0.012 A 
HETATM    4  C4  UNL     1     -16.743   4.070   6.358  1.00  0.00    -0.026 A 
HETATM    5  C5  UNL     1     -17.515   3.339   7.276  1.00  0.00     0.012 A 
HETATM    6  C6  UNL     1     -17.775   1.983   7.070  1.00  0.00     0.001 A 
HETATM    7  C7  UNL     1     -17.267   1.340   5.945  1.00  0.00     0.001 A 
HETATM    8  C8  UNL     1     -16.497   2.052   5.023  1.00  0.00     0.012 A 
HETATM    9  C9  UNL     1     -16.227   3.417   5.216  1.00  0.00    -0.026 A 
HETATM   10  C10 UNL     1     -15.455   4.147   4.298  1.00  0.00     0.012 A 
ENDROOT
TORSDOF 0
ENDMDL
MODEL 3
REMARK VINA RESULT:      -5.4      0.066      4.021
REMARK  0 active torsions:
REMARK  status: ('A' for Active; 'I' for Inactive)
ROOT
HETATM    1  C1  UNL     1     -17.229   1.348   5.993  1.00  0.00     0.001 A 
HETATM    2  C2  UNL     1     -17.747   2.006   7.105  1.00  0.00     0.001 A 
HETATM    3  C3  UNL     1     -17.502   3.368   7.287  1.00  0.00     0.012 A 
HETATM    4  C4  UNL     1     -16.734   4.090   6.358  1.00  0.00    -0.026 A 
HETATM    5  C5  UNL     1     -16.478   5.460   6.526  1.00  0.00     0.012 A 
HETATM    6  C6  UNL     1     -15.713   6.163   5.594  1.00  0.00     0.001 A 
HETATM    7  C7  UNL     1     -15.194   5.506   4.482  1.00  0.00     0.001 A 
HETATM    8  C8  UNL     1     -15.440   4.143   4.300  1.00  0.00     0.012 A 
HETATM    9  C9  UNL     1     -16.207   3.422   5.229  1.00  0.00    -0.026 A 
HETATM   10  C10 UNL     1     -16.463   2.051   5.061  1.00  0.00     0.012 A 
ENDROOT
TORSDOF 0
ENDMDL
MODEL 4
REMARK VINA RESULT:      -5.4      0.249      3.450
REMARK  0 active torsions:
REMARK  status: ('A' for Active; 'I' for Inactive)
ROOT
HETATM    1  C1  UNL     1     -17.740   2.326   7.114  1.00  0.00     0.001 A 
HETATM    2  C2  UNL     1     -17.263   1.583   6.037  1.00  0.00     0.001 A 
HETATM    3  C3  UNL     1     -16.464   2.194   5.068  1.00  0.00     0.012 A 
HETATM    4  C4  UNL     1     -16.131   3.555   5.166  1.00  0.00    -0.026 A 
HETATM    5  C5  UNL     1     -15.328   4.183   4.200  1.00  0.00     0.012 A 
HETATM    6  C6  UNL     1     -15.007   5.538   4.310  1.00  0.00     0.001 A 
HETATM    7  C7  UNL     1     -15.484   6.280   5.387  1.00  0.00     0.001 A 
HETATM    8  C8  UNL     1     -16.283   5.670   6.356  1.00  0.00     0.012 A 
HETATM    9  C9  UNL     1     -16.615   4.309   6.259  1.00  0.00    -0.026 A 
HETATM   10  C10 UNL     1     -17.418   3.680   7.225  1.00  0.00     0.012 A 
ENDROOT
TORSDOF 0
ENDMDL
MODEL 5
REMARK VINA RESULT:      -5.2      1.223      2.402
REMARK  0 active torsions:
REMARK  status: ('A' for Active; 'I' for Inactive)
ROOT
HETATM    1  C1  UNL     1     -14.196   4.837   3.747  1.00  0.00     0.001 A 
HETATM    2  C2  UNL     1     -15.142   5.633   4.388  1.00  0.00     0.001 A 
HETATM    3  C3  UNL     1     -16.238   5.042   5.019  1.00  0.00     0.012 A 
HETATM    4  C4  UNL     1     -16.401   3.647   5.017  1.00  0.00    -0.026 A 
HETATM    5  C5  UNL     1     -17.498   3.037   5.648  1.00  0.00     0.012 A 
HETATM    6  C6  UNL     1     -17.647   1.649   5.636  1.00  0.00     0.001 A 
HETATM    7  C7  UNL     1     -16.701   0.853   4.995  1.00  0.00     0.001 A 
HETATM    8  C8  UNL     1     -15.605   1.444   4.365  1.00  0.00     0.012 A 
HETATM    9  C9  UNL     1     -15.442   2.839   4.366  1.00  0.00    -0.026 A 
HETATM   10  C10 UNL     1     -14.345   3.449   3.736  1.00  0.00     0.012 A 
ENDROOT
TORSDOF 0
ENDMDL
MODEL 6
REMARK VINA RESULT:      -5.1      1.155      2.792
REMARK  0 active torsions:
REMARK  status: ('A' for Active; 'I' for Inactive)
ROOT
HETATM    1  C1  UNL     1     -13.677   5.587   3.474  1.00  0.00     0.001 A 
HETATM    2  C2  UNL     1     -13.783   6.694   4.312  1.00  0.00     0.001 A 
HETATM    3  C3  UNL     1     -14.726   6.702   5.341  1.00  0.00     0.012 A 
HETATM    4  C4  UNL     1     -15.575   5.602   5.546  1.00  0.00    -0.026 A 
HETATM    5  C5  UNL     1     -16.529   5.595   6.577  1.00  0.00     0.012 A 
HETATM    6  C6  UNL     1     -17.366   4.494   6.767  1.00  0.00     0.001 A 
HETATM    7  C7  UNL     1     -17.261   3.387   5.929  1.00  0.00     0.001 A 
HETATM    8  C8  UNL     1     -16.317   3.378   4.900  1.00  0.00     0.012 A 
HETATM    9  C9  UNL     1     -15.468   4.478   4.695  1.00  0.00    -0.026 A 
HETATM   10  C10 UNL     1     -14.515   4.486   3.664  1.00  0.00     0.012 A 
ENDROOT
TORSDOF 0
ENDMDL
MODEL 7
REMARK VINA RESULT:      -5.0      1.117      2.663
REMARK  0 active torsions:
REMARK  status: ('A' for Active; 'I' for Inactive)
ROOT
HETATM    1  C1  UNL     1     -16.321   5.619   6.073  1.00  0.00     0.001 A 
HETATM    2  C2  UNL     1     -17.218   4.861   6.820  1.00  0.00     0.001 A 
HETATM    3  C3  UNL     1     -17.336   3.490   6.587  1.00  0.00     0.012 A 
HETATM    4  C4  UNL     1     -16.557   2.859   5.603  1.00  0.00    -0.026 A 
HETATM    5  C5  UNL     1     -16.663   1.481   5.356  1.00  0.00     0.012 A 
HETATM    6  C6  UNL     1     -15.882   0.869   4.374  1.00  0.00     0.001 A 
HETATM    7  C7  UNL     1     -14.984   1.627   3.628  1.00  0.00     0.001 A 
HETATM    8  C8  UNL     1     -14.866   2.998   3.861  1.00  0.00     0.012 A 
HETATM    9  C9  UNL     1     -15.646   3.629   4.845  1.00  0.00    -0.026 A 
HETATM   10  C10 UNL     1     -15.539   5.007   5.091  1.00  0.00     0.012 A 
ENDROOT
TORSDOF 0
ENDMDL
MODEL 8
REMARK VINA RESULT:      -5.0      1.363      2.039
REMARK  0 active torsions:
REMARK  status: ('A' for Active; 'I' for Inactive)
ROOT
HETATM    1  C1  UNL     1     -15.973   5.380   5.022  1.00  0.00     0.001 A 
HETATM    2  C2  UNL     1     -14.824   5.299   4.240  1.00  0.00     0.001 A 
HETATM    3  C3  UNL     1     -14.384   4.059   3.774  1.00  0.00     0.012 A 
HETATM    4  C4  UNL     1     -15.088   2.884   4.083  1.00  0.00    -0.026 A 
HETATM    5  C5  UNL     1     -14.659   1.629   3.622  1.00  0.00     0.012 A 
HETATM    6  C6  UNL     1     -15.370   0.470   3.939  1.00  0.00     0.001 A 
HETATM    7  C7  UNL     1     -16.519   0.551   4.721  1.00  0.00     0.001 A 
HETATM    8  C8  UNL     1     -16.959   1.791   5.188  1.00  0.00     0.012 A 
HETATM    9  C9  UNL     1     -16.254   2.966   4.878  1.00  0.00    -0.026 A 
HETATM   10  C10 UNL     1     -16.684   4.221   5.339  1.00  0.00     0.012 A 
ENDROOT
TORSDOF 0
ENDMDL
MODEL 9
REMARK VINA RESULT:      -4.8     13.028     14.926
REMARK  0 active torsions:
REMARK  status: ('A' for Active; 'I' for Inactive)
ROOT
HETATM    1  C1  UNL     1     -15.575  15.722  -5.615  1.00  0.00     0.001 A 
HETATM    2  C2  UNL     1     -16.589  15.746  -6.569  1.00  0.00     0.001 A 
HETATM    3  C3  UNL     1     -17.383  14.615  -6.771  1.00  0.00     0.012 A 
HETATM    4  C4  UNL     1     -17.173  13.447  -6.020  1.00  0.00    -0.026 A 
HETATM    5  C5  UNL     1     -17.963  12.302  -6.211  1.00  0.00     0.012 A 
HETATM    6  C6  UNL     1     -17.741  11.148  -5.457  1.00  0.00     0.001 A 
HETATM    7  C7  UNL     1     -16.727  11.124  -4.504  1.00  0.00     0.001 A 
HETATM    8  C8  UNL     1     -15.933  12.254  -4.302  1.00  0.00     0.012 A 
HETATM    9  C9  UNL     1     -16.143  13.422  -5.053  1.00  0.00    -0.026 A 
HETATM   10  C10 UNL     1     -15.353  14.568  -4.862  1.00  0.00     0.012 A 
ENDROOT
TORSDOF 0
ENDMDL
